# generated using pymatgen
data_AcH2
_symmetry_space_group_name_H-M   'P 1'
_cell_length_a   4.18353403
_cell_length_b   4.18353375
_cell_length_c   4.18353428
_cell_angle_alpha   59.99999579
_cell_angle_beta   59.99999799
_cell_angle_gamma   59.99999185
_symmetry_Int_Tables_number   1
_chemical_formula_structural   AcH2
_chemical_formula_sum   'Ac1 H2'
_cell_volume   51.77437551
_cell_formula_units_Z   1
loop_
 _symmetry_equiv_pos_site_id
 _symmetry_equiv_pos_as_xyz
  1  'x, y, z'
loop_
 _atom_site_type_symbol
 _atom_site_label
 _atom_site_symmetry_multiplicity
 _atom_site_fract_x
 _atom_site_fract_y
 _atom_site_fract_z
 _atom_site_occupancy
  Ac  Ac0  1  -0.00000000  0.00000000  0.00000000  1
  H  H1  1  0.75000000  0.75000000  0.75000000  1
  H  H2  1  0.25000000  0.25000000  0.25000000  1
