# generated using pymatgen
data_Ac2S3
_symmetry_space_group_name_H-M   'P 1'
_cell_length_a   23.55695758
_cell_length_b   9.08325845
_cell_length_c   9.08326030
_cell_angle_alpha   90.00802915
_cell_angle_beta   54.66860796
_cell_angle_gamma   54.66862031
_symmetry_Int_Tables_number   1
_chemical_formula_structural   Ac2S3
_chemical_formula_sum   'Ac16 S24'
_cell_volume   1118.24974619
_cell_formula_units_Z   8
loop_
 _symmetry_equiv_pos_site_id
 _symmetry_equiv_pos_as_xyz
  1  'x, y, z'
loop_
 _atom_site_type_symbol
 _atom_site_label
 _atom_site_symmetry_multiplicity
 _atom_site_fract_x
 _atom_site_fract_y
 _atom_site_fract_z
 _atom_site_occupancy
  Ac  Ac0  1  0.99322137  0.40293778  0.25031014  1
  Ac  Ac1  1  0.08774195  0.61842243  0.36835356  1
  Ac  Ac2  1  0.16669559  0.25006260  0.62966108  1
  Ac  Ac3  1  0.34007632  0.38266391  0.24966365  1
  Ac  Ac4  1  0.24555063  0.88168427  0.13167690  1
  Ac  Ac5  1  0.34007293  0.09702071  0.73028490  1
  Ac  Ac6  1  0.16668424  0.74994039  0.87029342  1
  Ac  Ac7  1  0.49328868  0.26974806  0.61735514  1
  Ac  Ac8  1  0.58774195  0.86835356  0.11842243  1
  Ac  Ac9  1  0.66668424  0.37029342  0.24994039  1
  Ac  Ac10  1  0.49322137  0.75031014  0.90293778  1
  Ac  Ac11  1  0.66669559  0.12966108  0.75006260  1
  Ac  Ac12  1  0.74555063  0.63167690  0.38168327  1
  Ac  Ac13  1  0.84007293  0.23028490  0.59702071  1
  Ac  Ac14  1  0.84007632  0.74966365  0.88266491  1
  Ac  Ac15  1  0.99328868  0.11735614  0.76974806  1
  S  S16  1  0.05036388  0.99765541  0.35409197  1
  S  S17  1  0.12830285  0.48465830  0.99041728  1
  S  S18  1  0.05037049  0.35129183  0.49477679  1
  S  S19  1  0.28300983  0.14869180  0.14581800  1
  S  S20  1  0.28288931  0.50239530  0.00539127  1
  S  S21  1  0.12829217  0.63046648  0.62466741  1
  S  S22  1  0.38320518  0.00953223  0.34373287  1
  S  S23  1  0.20502361  0.86952930  0.50948904  1
  S  S24  1  0.45019708  0.49320018  0.99041322  1
  S  S25  1  0.38310778  0.34084155  0.50701677  1
  S  S26  1  0.20501665  0.01537279  0.87532544  1
  S  S27  1  0.62829217  0.12466841  0.13046648  1
  S  S28  1  0.62830285  0.49041728  0.98465830  1
  S  S29  1  0.45022048  0.65610566  0.65904616  1
  S  S30  1  0.70502361  0.00948904  0.36952930  1
  S  S31  1  0.55036388  0.85409197  0.49765541  1
  S  S32  1  0.78288931  0.50539127  0.00239530  1
  S  S33  1  0.70501665  0.37532544  0.51537279  1
  S  S34  1  0.55037049  0.99477679  0.85129183  1
  S  S35  1  0.95022048  0.15904616  0.15610566  1
  S  S36  1  0.95019708  0.49041322  0.99319918  1
  S  S37  1  0.78300983  0.64581800  0.64869180  1
  S  S38  1  0.88320518  0.84373287  0.50953223  1
  S  S39  1  0.88310778  0.00701677  0.84084155  1
