# generated using pymatgen
data_AgO
_symmetry_space_group_name_H-M   'P 1'
_cell_length_a   3.52427634
_cell_length_b   5.53398273
_cell_length_c   5.79723106
_cell_angle_alpha   72.69964378
_cell_angle_beta   90.00000000
_cell_angle_gamma   90.00000000
_symmetry_Int_Tables_number   1
_chemical_formula_structural   AgO
_chemical_formula_sum   'Ag4 O4'
_cell_volume   107.94986472
_cell_formula_units_Z   4
loop_
 _symmetry_equiv_pos_site_id
 _symmetry_equiv_pos_as_xyz
  1  'x, y, z'
loop_
 _atom_site_type_symbol
 _atom_site_label
 _atom_site_symmetry_multiplicity
 _atom_site_fract_x
 _atom_site_fract_y
 _atom_site_fract_z
 _atom_site_occupancy
  Ag  Ag0  1  0.50000000  0.50000000  -0.00000000  1
  Ag  Ag1  1  0.00000000  0.00000000  -0.00000000  1
  Ag  Ag2  1  0.50000000  0.00000000  0.50000000  1
  Ag  Ag3  1  0.00000000  0.50000000  0.50000000  1
  O  O4  1  0.83406940  0.28024285  0.29240710  1
  O  O5  1  0.33406940  0.21975715  0.70759290  1
  O  O6  1  0.16593060  0.71975715  0.70759290  1
  O  O7  1  0.66593060  0.78024285  0.29240710  1
