# generated using pymatgen
data_Al5W
_symmetry_space_group_name_H-M   'P 1'
_cell_length_a   4.86370942
_cell_length_b   4.86371005
_cell_length_c   8.83217312
_cell_angle_alpha   90.00000000
_cell_angle_beta   90.00000000
_cell_angle_gamma   120.00000253
_symmetry_Int_Tables_number   1
_chemical_formula_structural   Al5W
_chemical_formula_sum   'Al10 W2'
_cell_volume   180.93954353
_cell_formula_units_Z   2
loop_
 _symmetry_equiv_pos_site_id
 _symmetry_equiv_pos_as_xyz
  1  'x, y, z'
loop_
 _atom_site_type_symbol
 _atom_site_label
 _atom_site_symmetry_multiplicity
 _atom_site_fract_x
 _atom_site_fract_y
 _atom_site_fract_z
 _atom_site_occupancy
  Al  Al0  1  -0.00000000  -0.00000000  0.00000000  1
  Al  Al1  1  -0.00000000  -0.00000000  0.50000000  1
  Al  Al2  1  0.33333300  0.66666700  0.00000000  1
  Al  Al3  1  0.66666700  0.33333300  0.50000000  1
  Al  Al4  1  0.33748744  0.33748744  0.25000000  1
  Al  Al5  1  0.00000000  0.33748744  0.75000000  1
  Al  Al6  1  0.33748744  -0.00000000  0.75000000  1
  Al  Al7  1  0.66251256  0.00000000  0.25000000  1
  Al  Al8  1  -0.00000000  0.66251256  0.25000000  1
  Al  Al9  1  0.66251256  0.66251256  0.75000000  1
  W  W10  1  0.33333300  0.66666700  0.50000000  1
  W  W11  1  0.66666700  0.33333300  -0.00000000  1
