# generated using pymatgen
data_Al4Tc
_symmetry_space_group_name_H-M   'P 1'
_cell_length_a   5.16078134
_cell_length_b   5.10521406
_cell_length_c   9.11261837
_cell_angle_alpha   87.03143041
_cell_angle_beta   73.55070042
_cell_angle_gamma   79.46193097
_symmetry_Int_Tables_number   1
_chemical_formula_structural   Al4Tc
_chemical_formula_sum   'Al12 Tc3'
_cell_volume   226.37880078
_cell_formula_units_Z   3
loop_
 _symmetry_equiv_pos_site_id
 _symmetry_equiv_pos_as_xyz
  1  'x, y, z'
loop_
 _atom_site_type_symbol
 _atom_site_label
 _atom_site_symmetry_multiplicity
 _atom_site_fract_x
 _atom_site_fract_y
 _atom_site_fract_z
 _atom_site_occupancy
  Al  Al0  1  0.84935495  0.51018075  0.00000000  1
  Al  Al1  1  0.50516051  0.14712286  0.00000000  1
  Al  Al2  1  0.27089308  0.68607470  0.15243040  1
  Al  Al3  1  0.42332348  0.68607470  0.84756960  1
  Al  Al4  1  0.05739450  0.21977852  0.23847983  1
  Al  Al5  1  0.29587233  0.21977852  0.76152017  1
  Al  Al6  1  0.95484132  0.80731494  0.74773076  1
  Al  Al7  1  0.70257208  0.80731494  0.25226924  1
  Al  Al8  1  0.07492831  0.58646616  0.46507011  1
  Al  Al9  1  0.53999642  0.58646616  0.53492989  1
  Al  Al10  1  0.23029471  0.06751284  0.49606908  1
  Al  Al11  1  0.72636379  0.06751284  0.50393092  1
  Tc  Tc12  1  0.01164338  0.99467044  0.00000000  1
  Tc  Tc13  1  0.80487649  0.32986681  0.72461014  1
  Tc  Tc14  1  0.52948563  0.32986681  0.27538986  1
