# generated using pymatgen
data_Al2Os
_symmetry_space_group_name_H-M   'P 1'
_cell_length_a   3.15532682
_cell_length_b   3.15532682
_cell_length_c   4.71300952
_cell_angle_alpha   109.55972376
_cell_angle_beta   109.55971506
_cell_angle_gamma   90.00116613
_symmetry_Int_Tables_number   1
_chemical_formula_structural   Al2Os
_chemical_formula_sum   'Al2 Os1'
_cell_volume   41.33040791
_cell_formula_units_Z   1
loop_
 _symmetry_equiv_pos_site_id
 _symmetry_equiv_pos_as_xyz
  1  'x, y, z'
loop_
 _atom_site_type_symbol
 _atom_site_label
 _atom_site_symmetry_multiplicity
 _atom_site_fract_x
 _atom_site_fract_y
 _atom_site_fract_z
 _atom_site_occupancy
  Al  Al0  1  0.33861522  0.33861523  0.67733634  1
  Al  Al1  1  0.66138474  0.66138477  0.32266365  1
  Os  Os2  1  0.00000004  0.00000000  0.00000001  1
