# generated using pymatgen
data_AlCl3
_symmetry_space_group_name_H-M   'P 1'
_cell_length_a   5.95364891
_cell_length_b   5.95364951
_cell_length_c   6.29212942
_cell_angle_alpha   98.76475380
_cell_angle_beta   98.76474558
_cell_angle_gamma   119.97155710
_symmetry_Int_Tables_number   1
_chemical_formula_structural   AlCl3
_chemical_formula_sum   'Al2 Cl6'
_cell_volume   184.02278370
_cell_formula_units_Z   2
loop_
 _symmetry_equiv_pos_site_id
 _symmetry_equiv_pos_as_xyz
  1  'x, y, z'
loop_
 _atom_site_type_symbol
 _atom_site_label
 _atom_site_symmetry_multiplicity
 _atom_site_fract_x
 _atom_site_fract_y
 _atom_site_fract_z
 _atom_site_occupancy
  Al  Al0  1  0.83339891  0.16660109  0.00000000  1
  Al  Al1  1  0.16660109  0.83339891  -0.00000000  1
  Cl  Cl2  1  0.78881210  0.78881210  0.77849366  1
  Cl  Cl3  1  0.21118790  0.21118790  0.22150634  1
  Cl  Cl4  1  0.57096181  0.93030843  0.22057693  1
  Cl  Cl5  1  0.06969157  0.42903819  0.77942307  1
  Cl  Cl6  1  0.42903819  0.06969157  0.77942307  1
  Cl  Cl7  1  0.93030843  0.57096181  0.22057693  1
