# generated using pymatgen
data_AlAu3
_symmetry_space_group_name_H-M   'P 1'
_cell_length_a   5.79528669
_cell_length_b   5.79528669
_cell_length_c   4.60881080
_cell_angle_alpha   90.00000000
_cell_angle_beta   90.00000000
_cell_angle_gamma   119.99999924
_symmetry_Int_Tables_number   1
_chemical_formula_structural   AlAu3
_chemical_formula_sum   'Al2 Au6'
_cell_volume   134.05078632
_cell_formula_units_Z   2
loop_
 _symmetry_equiv_pos_site_id
 _symmetry_equiv_pos_as_xyz
  1  'x, y, z'
loop_
 _atom_site_type_symbol
 _atom_site_label
 _atom_site_symmetry_multiplicity
 _atom_site_fract_x
 _atom_site_fract_y
 _atom_site_fract_z
 _atom_site_occupancy
  Al  Al0  1  0.33333300  0.66666700  0.75000000  1
  Al  Al1  1  0.66666700  0.33333300  0.25000000  1
  Au  Au2  1  0.17068376  0.34136652  0.25000000  1
  Au  Au3  1  0.65863348  0.82931624  0.25000000  1
  Au  Au4  1  0.17068376  0.82931624  0.25000000  1
  Au  Au5  1  0.82931624  0.65863348  0.75000000  1
  Au  Au6  1  0.34136652  0.17068376  0.75000000  1
  Au  Au7  1  0.82931624  0.17068376  0.75000000  1
