# generated using pymatgen
data_Al2Au
_symmetry_space_group_name_H-M   'P 1'
_cell_length_a   4.24594268
_cell_length_b   4.24594252
_cell_length_c   4.24594329
_cell_angle_alpha   59.99998627
_cell_angle_beta   59.99998752
_cell_angle_gamma   59.99998597
_symmetry_Int_Tables_number   1
_chemical_formula_structural   Al2Au
_chemical_formula_sum   'Al2 Au1'
_cell_volume   54.12616990
_cell_formula_units_Z   1
loop_
 _symmetry_equiv_pos_site_id
 _symmetry_equiv_pos_as_xyz
  1  'x, y, z'
loop_
 _atom_site_type_symbol
 _atom_site_label
 _atom_site_symmetry_multiplicity
 _atom_site_fract_x
 _atom_site_fract_y
 _atom_site_fract_z
 _atom_site_occupancy
  Al  Al0  1  0.75000000  0.75000000  0.75000000  1
  Al  Al1  1  0.25000000  0.25000000  0.25000000  1
  Au  Au2  1  0.00000000  -0.00000000  -0.00000000  1
