# generated using pymatgen
data_Al3Ni5
_symmetry_space_group_name_H-M   'P 1'
_cell_length_a   3.72527337
_cell_length_b   4.94345816
_cell_length_c   4.94345975
_cell_angle_alpha   96.93144550
_cell_angle_beta   90.00000000
_cell_angle_gamma   90.00000000
_symmetry_Int_Tables_number   1
_chemical_formula_structural   Al3Ni5
_chemical_formula_sum   'Al3 Ni5'
_cell_volume   90.37206581
_cell_formula_units_Z   1
loop_
 _symmetry_equiv_pos_site_id
 _symmetry_equiv_pos_as_xyz
  1  'x, y, z'
loop_
 _atom_site_type_symbol
 _atom_site_label
 _atom_site_symmetry_multiplicity
 _atom_site_fract_x
 _atom_site_fract_y
 _atom_site_fract_z
 _atom_site_occupancy
  Al  Al0  1  -0.00000000  0.50000000  0.50000000  1
  Al  Al1  1  0.50000000  0.22126299  0.77873701  1
  Al  Al2  1  0.50000000  0.77873701  0.22126299  1
  Ni  Ni3  1  -0.00000000  0.00000000  0.00000000  1
  Ni  Ni4  1  -0.00000000  0.50000000  0.00000000  1
  Ni  Ni5  1  -0.00000000  0.00000000  0.50000000  1
  Ni  Ni6  1  0.50000000  0.27589205  0.27589205  1
  Ni  Ni7  1  0.50000000  0.72410795  0.72410795  1
