# generated using pymatgen
data_Al3Cr
_symmetry_space_group_name_H-M   'P 1'
_cell_length_a   4.83606781
_cell_length_b   4.83606781
_cell_length_c   4.83606781
_cell_angle_alpha   133.74726178
_cell_angle_beta   133.74726178
_cell_angle_gamma   67.48302922
_symmetry_Int_Tables_number   1
_chemical_formula_structural   Al3Cr
_chemical_formula_sum   'Al3 Cr1'
_cell_volume   58.03391652
_cell_formula_units_Z   1
loop_
 _symmetry_equiv_pos_site_id
 _symmetry_equiv_pos_as_xyz
  1  'x, y, z'
loop_
 _atom_site_type_symbol
 _atom_site_label
 _atom_site_symmetry_multiplicity
 _atom_site_fract_x
 _atom_site_fract_y
 _atom_site_fract_z
 _atom_site_occupancy
  Al  Al0  1  0.75000100  0.24999900  0.50000200  1
  Al  Al1  1  0.24999900  0.75000100  0.50000200  1
  Al  Al2  1  0.50000000  0.50000000  -0.00000000  1
  Cr  Cr3  1  -0.00000000  0.00000000  -0.00000000  1
