# generated using pymatgen
data_Al41V4
_symmetry_space_group_name_H-M   'P 1'
_cell_length_a   10.13341311
_cell_length_b   10.13340434
_cell_length_c   10.13343431
_cell_angle_alpha   60.00027868
_cell_angle_beta   60.00000942
_cell_angle_gamma   60.00008363
_symmetry_Int_Tables_number   1
_chemical_formula_structural   Al41V4
_chemical_formula_sum   'Al41 V4'
_cell_volume   735.79019997
_cell_formula_units_Z   1
loop_
 _symmetry_equiv_pos_site_id
 _symmetry_equiv_pos_as_xyz
  1  'x, y, z'
loop_
 _atom_site_type_symbol
 _atom_site_label
 _atom_site_symmetry_multiplicity
 _atom_site_fract_x
 _atom_site_fract_y
 _atom_site_fract_z
 _atom_site_occupancy
  Al  Al0  1  0.37852178  0.87383045  0.87382256  1
  Al  Al1  1  0.87383784  0.37854070  0.87380145  1
  Al  Al2  1  0.87382824  0.87382680  0.37851621  1
  Al  Al3  1  0.87381991  0.87383700  0.87380183  1
  Al  Al4  1  0.81789276  0.55166194  0.55165884  1
  Al  Al5  1  0.55166200  0.81788641  0.07879028  1
  Al  Al6  1  0.55166285  0.07878535  0.81788777  1
  Al  Al7  1  0.07879035  0.55165988  0.55165911  1
  Al  Al8  1  0.55166562  0.55166430  0.81788797  1
  Al  Al9  1  0.81788927  0.07878730  0.55165912  1
  Al  Al10  1  0.07878669  0.81788922  0.55166083  1
  Al  Al11  1  0.55166309  0.55166198  0.07878661  1
  Al  Al12  1  0.55166334  0.81789112  0.55165959  1
  Al  Al13  1  0.07878587  0.55166106  0.81788945  1
  Al  Al14  1  0.81788796  0.55166064  0.07879038  1
  Al  Al15  1  0.55166083  0.07878949  0.55165982  1
  Al  Al16  1  0.93204706  0.19844013  0.19844446  1
  Al  Al17  1  0.19843670  0.93204923  0.67107706  1
  Al  Al18  1  0.19843434  0.67107880  0.93205424  1
  Al  Al19  1  0.67106624  0.19844156  0.19844525  1
  Al  Al20  1  0.19843293  0.19843134  0.93205327  1
  Al  Al21  1  0.93204691  0.67106547  0.19844556  1
  Al  Al22  1  0.67106730  0.93204495  0.19844617  1
  Al  Al23  1  0.19843472  0.19844293  0.67106845  1
  Al  Al24  1  0.19843989  0.93204647  0.19844513  1
  Al  Al25  1  0.67108028  0.19843387  0.93205293  1
  Al  Al26  1  0.93204960  0.19843588  0.67107644  1
  Al  Al27  1  0.19844169  0.67106421  0.19844546  1
  Al  Al28  1  0.11004031  0.11004047  0.38995971  1
  Al  Al29  1  0.38996200  0.38996119  0.11004099  1
  Al  Al30  1  0.11003932  0.38995723  0.11004448  1
  Al  Al31  1  0.38995686  0.11004204  0.38995921  1
  Al  Al32  1  0.38995773  0.11003934  0.11004406  1
  Al  Al33  1  0.11004172  0.38995643  0.38995875  1
  Al  Al34  1  0.63968088  0.63967898  0.36031986  1
  Al  Al35  1  0.36032045  0.36031882  0.63967893  1
  Al  Al36  1  0.63968260  0.36031888  0.63967850  1
  Al  Al37  1  0.36032115  0.63967907  0.36032040  1
  Al  Al38  1  0.36032052  0.63968089  0.63967860  1
  Al  Al39  1  0.63968005  0.36031996  0.36032021  1
  Al  Al40  1  0.74999964  0.74999906  0.74999997  1
  V  V41  1  0.87478223  0.37506964  0.37507396  1
  V  V42  1  0.37507134  0.87478127  0.37507516  1
  V  V43  1  0.37507277  0.37507239  0.87478196  1
  V  V44  1  0.37507234  0.37507187  0.37507402  1
