# generated using pymatgen
data_AlF3
_symmetry_space_group_name_H-M   'P 1'
_cell_length_a   6.88283269
_cell_length_b   6.88283154
_cell_length_c   7.06360244
_cell_angle_alpha   90.00000000
_cell_angle_beta   90.00000000
_cell_angle_gamma   119.73761749
_symmetry_Int_Tables_number   1
_chemical_formula_structural   AlF3
_chemical_formula_sum   'Al6 F18'
_cell_volume   290.55838996
_cell_formula_units_Z   6
loop_
 _symmetry_equiv_pos_site_id
 _symmetry_equiv_pos_as_xyz
  1  'x, y, z'
loop_
 _atom_site_type_symbol
 _atom_site_label
 _atom_site_symmetry_multiplicity
 _atom_site_fract_x
 _atom_site_fract_y
 _atom_site_fract_z
 _atom_site_occupancy
  Al  Al0  1  0.50000000  0.50000000  -0.00000000  1
  Al  Al1  1  0.00000000  0.50000000  -0.00000000  1
  Al  Al2  1  0.50000000  0.50000000  0.50000000  1
  Al  Al3  1  0.50000000  -0.00000000  0.50000000  1
  Al  Al4  1  0.50000000  -0.00000000  -0.00000000  1
  Al  Al5  1  0.00000000  0.50000000  0.50000000  1
  F  F6  1  0.44654469  0.99438244  0.75000000  1
  F  F7  1  0.47130544  0.52869456  0.25000000  1
  F  F8  1  0.21067316  0.42059050  0.96744214  1
  F  F9  1  0.57940950  0.78932684  0.96744214  1
  F  F10  1  0.99438244  0.44654469  0.25000000  1
  F  F11  1  0.00561756  0.55345531  0.75000000  1
  F  F12  1  0.42059050  0.21067316  0.03255786  1
  F  F13  1  0.57940950  0.78932684  0.53255786  1
  F  F14  1  0.78932684  0.57940950  0.46744214  1
  F  F15  1  0.78593948  0.21406052  0.53742731  1
  F  F16  1  0.55345531  0.00561756  0.25000000  1
  F  F17  1  0.78593948  0.21406052  0.96257269  1
  F  F18  1  0.21406052  0.78593948  0.03742731  1
  F  F19  1  0.78932684  0.57940950  0.03255786  1
  F  F20  1  0.21406052  0.78593948  0.46257269  1
  F  F21  1  0.42059050  0.21067316  0.46744214  1
  F  F22  1  0.52869456  0.47130544  0.75000000  1
  F  F23  1  0.21067316  0.42059050  0.53255786  1
