# generated using pymatgen
data_BIr
_symmetry_space_group_name_H-M   'P 1'
_cell_length_a   3.04209401
_cell_length_b   3.04212215
_cell_length_c   2.70297231
_cell_angle_alpha   89.99974358
_cell_angle_beta   90.00025211
_cell_angle_gamma   119.99691627
_symmetry_Int_Tables_number   1
_chemical_formula_structural   BIr
_chemical_formula_sum   'B1 Ir1'
_cell_volume   21.66381816
_cell_formula_units_Z   1
loop_
 _symmetry_equiv_pos_site_id
 _symmetry_equiv_pos_as_xyz
  1  'x, y, z'
loop_
 _atom_site_type_symbol
 _atom_site_label
 _atom_site_symmetry_multiplicity
 _atom_site_fract_x
 _atom_site_fract_y
 _atom_site_fract_z
 _atom_site_occupancy
  B  B0  1  0.66666831  0.33333069  0.74999900  1
  Ir  Ir1  1  0.33333169  0.66667031  0.25000000  1
