# generated using pymatgen
data_B2H5
_symmetry_space_group_name_H-M   'P 1'
_cell_length_a   5.79896823
_cell_length_b   8.76416174
_cell_length_c   10.08812974
_cell_angle_alpha   90.00000000
_cell_angle_beta   90.00000000
_cell_angle_gamma   106.35893813
_symmetry_Int_Tables_number   1
_chemical_formula_structural   B2H5
_chemical_formula_sum   'B16 H40'
_cell_volume   491.95346734
_cell_formula_units_Z   8
loop_
 _symmetry_equiv_pos_site_id
 _symmetry_equiv_pos_as_xyz
  1  'x, y, z'
loop_
 _atom_site_type_symbol
 _atom_site_label
 _atom_site_symmetry_multiplicity
 _atom_site_fract_x
 _atom_site_fract_y
 _atom_site_fract_z
 _atom_site_occupancy
  B  B0  1  0.17525578  0.27824289  0.41349946  1
  B  B1  1  0.32474422  0.22175711  0.91349946  1
  B  B2  1  0.82474422  0.72175711  0.58650054  1
  B  B3  1  0.67525578  0.77824289  0.08650054  1
  B  B4  1  0.17520389  0.11714376  0.29726159  1
  B  B5  1  0.32479611  0.38285624  0.79726159  1
  B  B6  1  0.82479611  0.88285624  0.70273841  1
  B  B7  1  0.67520389  0.61714376  0.20273841  1
  B  B8  1  0.01855827  0.26939401  0.26871435  1
  B  B9  1  0.48144173  0.23060599  0.76871435  1
  B  B10  1  0.98144173  0.73060599  0.73128565  1
  B  B11  1  0.51855827  0.76939401  0.23128565  1
  B  B12  1  0.84878854  0.24638091  0.42490780  1
  B  B13  1  0.65121146  0.25361909  0.92490780  1
  B  B14  1  0.15121146  0.75361909  0.57509220  1
  B  B15  1  0.34878854  0.74638091  0.07509220  1
  H  H16  1  0.32974217  0.39730575  0.43245763  1
  H  H17  1  0.17025783  0.10269425  0.93245763  1
  H  H18  1  0.67025783  0.60269425  0.56754237  1
  H  H19  1  0.82974217  0.89730575  0.06754237  1
  H  H20  1  0.25146708  0.15782811  0.42877407  1
  H  H21  1  0.24853292  0.34217189  0.92877407  1
  H  H22  1  0.74853292  0.84217189  0.57122593  1
  H  H23  1  0.75146708  0.65782811  0.07122593  1
  H  H24  1  0.35620864  0.13398719  0.23598007  1
  H  H25  1  0.14379136  0.36601281  0.73598007  1
  H  H26  1  0.64379136  0.86601281  0.76401993  1
  H  H27  1  0.85620864  0.63398719  0.26401993  1
  H  H28  1  0.05836192  0.98491291  0.32350564  1
  H  H29  1  0.44163808  0.51508709  0.82350564  1
  H  H30  1  0.94163808  0.01508709  0.67649436  1
  H  H31  1  0.55836192  0.48491291  0.17649436  1
  H  H32  1  0.00807947  0.14385533  0.20459656  1
  H  H33  1  0.49192053  0.35614467  0.70459656  1
  H  H34  1  0.99192053  0.85614467  0.79540344  1
  H  H35  1  0.50807947  0.64385533  0.29540344  1
  H  H36  1  0.07900467  0.38340512  0.20026604  1
  H  H37  1  0.42099533  0.11659488  0.70026604  1
  H  H38  1  0.92099533  0.61659488  0.79973396  1
  H  H39  1  0.57900467  0.88340512  0.29973396  1
  H  H40  1  0.79448962  0.22912319  0.28828415  1
  H  H41  1  0.70551038  0.27087681  0.78828515  1
  H  H42  1  0.20551038  0.77087681  0.71171485  1
  H  H43  1  0.29448962  0.72912319  0.21171485  1
  H  H44  1  0.78817284  0.35947863  0.45827155  1
  H  H45  1  0.71182716  0.14052137  0.95827155  1
  H  H46  1  0.21182716  0.64052137  0.54172845  1
  H  H47  1  0.28817284  0.85947863  0.04172845  1
  H  H48  1  0.72499742  0.11685526  0.45415426  1
  H  H49  1  0.77500258  0.38314474  0.95415426  1
  H  H50  1  0.27500258  0.88314474  0.54584574  1
  H  H51  1  0.22499742  0.61685526  0.04584574  1
  H  H52  1  0.03687613  0.24251897  0.51222323  1
  H  H53  1  0.46312387  0.25748103  0.01222323  1
  H  H54  1  0.96312387  0.75748103  0.48777677  1
  H  H55  1  0.53687613  0.74251897  0.98777677  1
