# generated using pymatgen
data_BPt2
_symmetry_space_group_name_H-M   'P 1'
_cell_length_a   2.89806143
_cell_length_b   2.89806143
_cell_length_c   10.25594861
_cell_angle_alpha   90.00000000
_cell_angle_beta   90.00000000
_cell_angle_gamma   119.93056499
_symmetry_Int_Tables_number   1
_chemical_formula_structural   BPt2
_chemical_formula_sum   'B2 Pt4'
_cell_volume   74.64918668
_cell_formula_units_Z   2
loop_
 _symmetry_equiv_pos_site_id
 _symmetry_equiv_pos_as_xyz
  1  'x, y, z'
loop_
 _atom_site_type_symbol
 _atom_site_label
 _atom_site_symmetry_multiplicity
 _atom_site_fract_x
 _atom_site_fract_y
 _atom_site_fract_z
 _atom_site_occupancy
  B  B0  1  0.66675662  0.33324338  0.74999692  1
  B  B1  1  0.33324338  0.66675662  0.24999692  1
  Pt  Pt2  1  0.66672702  0.33327298  0.11625303  1
  Pt  Pt3  1  0.33327299  0.66672701  0.88375005  1
  Pt  Pt4  1  0.33327298  0.66672702  0.61625303  1
  Pt  Pt5  1  0.66672701  0.33327299  0.38375005  1
