# generated using pymatgen
data_B5H9
_symmetry_space_group_name_H-M   'P 1'
_cell_length_a   5.77070333
_cell_length_b   5.77070333
_cell_length_c   5.77070333
_cell_angle_alpha   102.22092699
_cell_angle_beta   102.22092699
_cell_angle_gamma   125.21431402
_symmetry_Int_Tables_number   1
_chemical_formula_structural   B5H9
_chemical_formula_sum   'B5 H9'
_cell_volume   139.39896306
_cell_formula_units_Z   1
loop_
 _symmetry_equiv_pos_site_id
 _symmetry_equiv_pos_as_xyz
  1  'x, y, z'
loop_
 _atom_site_type_symbol
 _atom_site_label
 _atom_site_symmetry_multiplicity
 _atom_site_fract_x
 _atom_site_fract_y
 _atom_site_fract_z
 _atom_site_occupancy
  B  B0  1  0.23037062  0.23037062  0.00000000  1
  B  B1  1  0.19335087  0.01893375  0.17441712  1
  B  B2  1  0.84451563  0.01893375  0.82558288  1
  B  B3  1  0.01893375  0.19335087  0.17441712  1
  B  B4  1  0.01893375  0.84451563  0.82558288  1
  H  H5  1  0.45311737  0.45311737  0.00000000  1
  H  H6  1  0.38119236  0.04466550  0.33652586  1
  H  H7  1  0.70814065  0.04466550  0.66347414  1
  H  H8  1  0.04466550  0.38119236  0.33652586  1
  H  H9  1  0.04466550  0.70814065  0.66347414  1
  H  H10  1  0.98120447  0.71835203  0.00000000  1
  H  H11  1  0.71835203  0.98120447  -0.00000000  1
  H  H12  1  0.71835203  0.71835203  0.73714755  1
  H  H13  1  0.98120447  0.98120447  0.26285245  1
