# generated using pymatgen
data_B2O3
_symmetry_space_group_name_H-M   'P 1'
_cell_length_a   4.33741660
_cell_length_b   4.33741787
_cell_length_c   8.30902354
_cell_angle_alpha   90.00000000
_cell_angle_beta   90.00000000
_cell_angle_gamma   120.00001084
_symmetry_Int_Tables_number   1
_chemical_formula_structural   B2O3
_chemical_formula_sum   'B6 O9'
_cell_volume   135.37640458
_cell_formula_units_Z   3
loop_
 _symmetry_equiv_pos_site_id
 _symmetry_equiv_pos_as_xyz
  1  'x, y, z'
loop_
 _atom_site_type_symbol
 _atom_site_label
 _atom_site_symmetry_multiplicity
 _atom_site_fract_x
 _atom_site_fract_y
 _atom_site_fract_z
 _atom_site_occupancy
  B  B0  1  0.10014870  0.27065547  0.89931969  1
  B  B1  1  0.17050877  0.89985130  0.56598569  1
  B  B2  1  0.72934453  0.82949123  0.23265269  1
  B  B3  1  0.56654681  0.50382586  0.68267751  1
  B  B4  1  0.93727805  0.43345319  0.34934451  1
  B  B5  1  0.49617414  0.06272195  0.01601151  1
  O  O6  1  0.48233896  0.21679708  0.58562766  1
  O  O7  1  0.78320292  0.26554188  0.91896166  1
  O  O8  1  0.73445812  0.51766104  0.25229466  1
  O  O9  1  0.33336984  0.51095125  0.79100187  1
  O  O10  1  0.17758141  0.66663016  0.45766887  1
  O  O11  1  0.48904875  0.82241859  0.12433487  1
  O  O12  1  0.88348663  0.81565118  0.66303728  1
  O  O13  1  0.93216255  0.11651337  0.32970428  1
  O  O14  1  0.18434882  0.06783745  0.99637128  1
