# generated using pymatgen
data_B3Pd16
_symmetry_space_group_name_H-M   'P 1'
_cell_length_a   8.11004012
_cell_length_b   9.07647561
_cell_length_c   9.02574163
_cell_angle_alpha   113.73984426
_cell_angle_beta   90.00000000
_cell_angle_gamma   116.53609199
_symmetry_Int_Tables_number   1
_chemical_formula_structural   B3Pd16
_chemical_formula_sum   'B6 Pd32'
_cell_volume   530.81814335
_cell_formula_units_Z   2
loop_
 _symmetry_equiv_pos_site_id
 _symmetry_equiv_pos_as_xyz
  1  'x, y, z'
loop_
 _atom_site_type_symbol
 _atom_site_label
 _atom_site_symmetry_multiplicity
 _atom_site_fract_x
 _atom_site_fract_y
 _atom_site_fract_z
 _atom_site_occupancy
  B  B0  1  0.62482429  0.00000000  0.75000000  1
  B  B1  1  0.37517571  -0.00000000  0.25000000  1
  B  B2  1  0.93347628  0.63259417  0.50065746  1
  B  B3  1  0.69911789  0.63259417  0.00065746  1
  B  B4  1  0.06652372  0.36740583  0.49934254  1
  B  B5  1  0.30088211  0.36740583  0.99934254  1
  Pd  Pd6  1  0.37006400  0.00000000  0.75000000  1
  Pd  Pd7  1  0.62993600  -0.00000000  0.25000000  1
  Pd  Pd8  1  0.87942862  -0.00000000  0.75000000  1
  Pd  Pd9  1  0.12057238  0.00000000  0.25000000  1
  Pd  Pd10  1  0.06634111  0.88293111  0.49991661  1
  Pd  Pd11  1  0.81659000  0.88293111  -0.00008339  1
  Pd  Pd12  1  0.93365889  0.11706889  0.50008339  1
  Pd  Pd13  1  0.18341000  0.11706889  0.00008339  1
  Pd  Pd14  1  0.56057000  0.87204779  0.49318132  1
  Pd  Pd15  1  0.31147979  0.87204779  0.99318132  1
  Pd  Pd16  1  0.43943000  0.12795221  0.50681868  1
  Pd  Pd17  1  0.68852021  0.12795221  0.00681868  1
  Pd  Pd18  1  0.00079280  0.75301444  0.75541930  1
  Pd  Pd19  1  0.75222264  0.75301444  0.25541930  1
  Pd  Pd20  1  0.99920720  0.24698556  0.24458070  1
  Pd  Pd21  1  0.24777736  0.24698556  0.74458070  1
  Pd  Pd22  1  0.49875899  0.74594031  0.75019428  1
  Pd  Pd23  1  0.24718032  0.74594031  0.25019428  1
  Pd  Pd24  1  0.50124101  0.25405969  0.24980572  1
  Pd  Pd25  1  0.75281968  0.25405969  0.74980572  1
  Pd  Pd26  1  0.19216858  0.62810911  0.50080132  1
  Pd  Pd27  1  0.43594153  0.62810911  0.00080132  1
  Pd  Pd28  1  0.80783142  0.37189089  0.49919868  1
  Pd  Pd29  1  0.56405847  0.37189089  0.99919868  1
  Pd  Pd30  1  0.67884993  0.62578034  0.49981352  1
  Pd  Pd31  1  0.94692941  0.62578034  0.99981352  1
  Pd  Pd32  1  0.32115007  0.37421966  0.50018648  1
  Pd  Pd33  1  0.05307059  0.37421966  0.00018648  1
  Pd  Pd34  1  0.87313722  0.49810402  0.24502870  1
  Pd  Pd35  1  0.62496781  0.49810402  0.74502870  1
  Pd  Pd36  1  0.12686278  0.50189598  0.75497130  1
  Pd  Pd37  1  0.37503219  0.50189598  0.25497030  1
