# generated using pymatgen
data_Ba2N
_symmetry_space_group_name_H-M   'P 1'
_cell_length_a   8.02252588
_cell_length_b   8.02252600
_cell_length_c   8.02252577
_cell_angle_alpha   29.20852321
_cell_angle_beta   29.20852461
_cell_angle_gamma   29.20852052
_symmetry_Int_Tables_number   1
_chemical_formula_structural   Ba2N
_chemical_formula_sum   'Ba2 N1'
_cell_volume   108.78723068
_cell_formula_units_Z   1
loop_
 _symmetry_equiv_pos_site_id
 _symmetry_equiv_pos_as_xyz
  1  'x, y, z'
loop_
 _atom_site_type_symbol
 _atom_site_label
 _atom_site_symmetry_multiplicity
 _atom_site_fract_x
 _atom_site_fract_y
 _atom_site_fract_z
 _atom_site_occupancy
  Ba  Ba0  1  0.73192504  0.73192504  0.73192504  1
  Ba  Ba1  1  0.26807496  0.26807496  0.26807496  1
  N  N2  1  0.00000000  -0.00000000  0.00000000  1
