# generated using pymatgen
data_Ba5Si3
_symmetry_space_group_name_H-M   'P 1'
_cell_length_a   8.54285382
_cell_length_b   8.54285382
_cell_length_c   16.64057964
_cell_angle_alpha   90.00000000
_cell_angle_beta   90.00000000
_cell_angle_gamma   90.00000000
_symmetry_Int_Tables_number   1
_chemical_formula_structural   Ba5Si3
_chemical_formula_sum   'Ba20 Si12'
_cell_volume   1214.43534946
_cell_formula_units_Z   4
loop_
 _symmetry_equiv_pos_site_id
 _symmetry_equiv_pos_as_xyz
  1  'x, y, z'
loop_
 _atom_site_type_symbol
 _atom_site_label
 _atom_site_symmetry_multiplicity
 _atom_site_fract_x
 _atom_site_fract_y
 _atom_site_fract_z
 _atom_site_occupancy
  Ba  Ba0  1  0.05269508  0.91932608  0.10951472  1
  Ba  Ba1  1  0.91932608  0.44730492  0.10951472  1
  Ba  Ba2  1  0.25000000  0.25000000  0.71930092  1
  Ba  Ba3  1  0.08067392  0.94730492  0.39048528  1
  Ba  Ba4  1  0.41932608  0.94730492  0.89048528  1
  Ba  Ba5  1  0.94730492  0.41932608  0.39048528  1
  Ba  Ba6  1  0.41932608  0.55269508  0.39048528  1
  Ba  Ba7  1  0.91932608  0.05269508  0.60951472  1
  Ba  Ba8  1  0.08067392  0.55269508  0.89048528  1
  Ba  Ba9  1  0.94730492  0.08067392  0.89048528  1
  Ba  Ba10  1  0.25000000  0.25000000  0.21930092  1
  Ba  Ba11  1  0.58067392  0.44730492  0.60951472  1
  Ba  Ba12  1  0.05269508  0.58067392  0.60951472  1
  Ba  Ba13  1  0.55269508  0.08067392  0.39048528  1
  Ba  Ba14  1  0.55269508  0.41932608  0.89048528  1
  Ba  Ba15  1  0.58067392  0.05269508  0.10951472  1
  Ba  Ba16  1  0.75000000  0.75000000  0.28069908  1
  Ba  Ba17  1  0.75000000  0.75000000  0.78069908  1
  Ba  Ba18  1  0.44730492  0.58067392  0.10951472  1
  Ba  Ba19  1  0.44730492  0.91932608  0.60951472  1
  Si  Si20  1  0.85126626  0.35126626  0.75000000  1
  Si  Si21  1  0.14873374  0.85126626  0.75000000  1
  Si  Si22  1  0.75000000  0.75000000  0.98967659  1
  Si  Si23  1  0.35126626  0.85126626  0.25000000  1
  Si  Si24  1  0.25000000  0.25000000  0.01032341  1
  Si  Si25  1  0.85126626  0.14873374  0.25000000  1
  Si  Si26  1  0.35126626  0.64873374  0.75000000  1
  Si  Si27  1  0.64873374  0.14873374  0.75000000  1
  Si  Si28  1  0.14873374  0.64873374  0.25000000  1
  Si  Si29  1  0.64873374  0.35126626  0.25000000  1
  Si  Si30  1  0.25000000  0.25000000  0.51032341  1
  Si  Si31  1  0.75000000  0.75000000  0.48967659  1
