# generated using pymatgen
data_Ba3P2
_symmetry_space_group_name_H-M   'P 1'
_cell_length_a   25.70242894
_cell_length_b   9.89745896
_cell_length_c   9.89745931
_cell_angle_alpha   89.99690071
_cell_angle_beta   54.71364663
_cell_angle_gamma   54.71364766
_symmetry_Int_Tables_number   1
_chemical_formula_structural   Ba3P2
_chemical_formula_sum   'Ba24 P16'
_cell_volume   1452.15539939
_cell_formula_units_Z   8
loop_
 _symmetry_equiv_pos_site_id
 _symmetry_equiv_pos_as_xyz
  1  'x, y, z'
loop_
 _atom_site_type_symbol
 _atom_site_label
 _atom_site_symmetry_multiplicity
 _atom_site_fract_x
 _atom_site_fract_y
 _atom_site_fract_z
 _atom_site_occupancy
  Ba  Ba0  1  0.04613421  0.99176210  0.37046176  1
  Ba  Ba1  1  0.13639331  0.47800051  0.98544188  1
  Ba  Ba2  1  0.04617001  0.36981037  0.49108702  1
  Ba  Ba3  1  0.28719938  0.13010369  0.12951576  1
  Ba  Ba4  1  0.28717464  0.50827737  0.00893885  1
  Ba  Ba5  1  0.13639681  0.61282853  0.60538459  1
  Ba  Ba6  1  0.19693728  0.02203621  0.89459494  1
  Ba  Ba7  1  0.37889984  0.01854633  0.34706660  1
  Ba  Ba8  1  0.19694262  0.88711199  0.51460997  1
  Ba  Ba9  1  0.45440061  0.48386327  0.98148774  1
  Ba  Ba10  1  0.37891903  0.34475764  0.51622399  1
  Ba  Ba11  1  0.63639681  0.10538459  0.11282853  1
  Ba  Ba12  1  0.63639331  0.48544188  0.97800051  1
  Ba  Ba13  1  0.45443062  0.65290727  0.65519977  1
  Ba  Ba14  1  0.54617001  0.99108702  0.86981037  1
  Ba  Ba15  1  0.69694262  0.01460997  0.38711199  1
  Ba  Ba16  1  0.54613421  0.87046176  0.49176210  1
  Ba  Ba17  1  0.78717464  0.50893885  0.00827737  1
  Ba  Ba18  1  0.69693728  0.39459494  0.52203621  1
  Ba  Ba19  1  0.95443062  0.15519977  0.15290727  1
  Ba  Ba20  1  0.95440061  0.48148774  0.98386327  1
  Ba  Ba21  1  0.78719938  0.62951576  0.63010369  1
  Ba  Ba22  1  0.87891903  0.01622399  0.84475764  1
  Ba  Ba23  1  0.87889984  0.84706660  0.51854633  1
  P  P24  1  0.08722167  0.61919388  0.36919761  1
  P  P25  1  0.16666862  0.24990162  0.62821115  1
  P  P26  1  0.24610563  0.88080529  0.13082189  1
  P  P27  1  0.34023002  0.37871572  0.25075703  1
  P  P28  1  0.16667618  0.75005632  0.87178825  1
  P  P29  1  0.34022090  0.10066259  0.72854143  1
  P  P30  1  0.49310148  0.27152209  0.62125153  1
  P  P31  1  0.66667618  0.37178825  0.25005632  1
  P  P32  1  0.58722167  0.86919761  0.11919388  1
  P  P33  1  0.49310715  0.74922193  0.89932950  1
  P  P34  1  0.66666862  0.12821115  0.74990162  1
  P  P35  1  0.74610563  0.63082189  0.38080529  1
  P  P36  1  0.84022090  0.22854143  0.60066259  1
  P  P37  1  0.99310715  0.39932950  0.24922193  1
  P  P38  1  0.84023002  0.75075703  0.87871572  1
  P  P39  1  0.99310148  0.12125153  0.77152209  1
