# generated using pymatgen
data_Ba3P4
_symmetry_space_group_name_H-M   'P 1'
_cell_length_a   6.23719224
_cell_length_b   8.12035351
_cell_length_c   9.71494051
_cell_angle_alpha   82.91838660
_cell_angle_beta   71.27596033
_cell_angle_gamma   67.41542023
_symmetry_Int_Tables_number   1
_chemical_formula_structural   Ba3P4
_chemical_formula_sum   'Ba6 P8'
_cell_volume   430.26709162
_cell_formula_units_Z   2
loop_
 _symmetry_equiv_pos_site_id
 _symmetry_equiv_pos_as_xyz
  1  'x, y, z'
loop_
 _atom_site_type_symbol
 _atom_site_label
 _atom_site_symmetry_multiplicity
 _atom_site_fract_x
 _atom_site_fract_y
 _atom_site_fract_z
 _atom_site_occupancy
  Ba  Ba0  1  0.59346972  0.98990939  0.33780285  1
  Ba  Ba1  1  0.92118197  0.01009061  0.66219715  1
  Ba  Ba2  1  0.33338011  0.51009061  0.83780285  1
  Ba  Ba3  1  0.68127257  0.48990939  0.16219715  1
  Ba  Ba4  1  0.00103105  0.50000000  0.50000000  1
  Ba  Ba5  1  0.25103105  0.00000000  -0.00000000  1
  P  P6  1  0.41920423  0.65461848  0.49396925  1
  P  P7  1  0.56779195  0.34538152  0.50603075  1
  P  P8  1  0.82382270  0.84538152  0.99396925  1
  P  P9  1  0.66317247  0.15461848  0.00603075  1
  P  P10  1  0.34904749  0.19517519  0.65140891  1
  P  P11  1  0.19563259  0.80482481  0.34859109  1
  P  P12  1  0.75045840  0.69517519  0.84859109  1
  P  P13  1  0.29422369  0.30482481  0.15140891  1
