# generated using pymatgen
data_BeCl2
_symmetry_space_group_name_H-M   'P 1'
_cell_length_a   10.99586858
_cell_length_b   10.99586828
_cell_length_c   11.87106726
_cell_angle_alpha   117.58974428
_cell_angle_beta   117.58973670
_cell_angle_gamma   89.99999956
_symmetry_Int_Tables_number   1
_chemical_formula_structural   BeCl2
_chemical_formula_sum   'Be16 Cl32'
_cell_volume   1084.60045433
_cell_formula_units_Z   16
loop_
 _symmetry_equiv_pos_site_id
 _symmetry_equiv_pos_as_xyz
  1  'x, y, z'
loop_
 _atom_site_type_symbol
 _atom_site_label
 _atom_site_symmetry_multiplicity
 _atom_site_fract_x
 _atom_site_fract_y
 _atom_site_fract_z
 _atom_site_occupancy
  Be  Be0  1  0.39004780  0.43557108  0.62149400  1
  Be  Be1  1  0.23144520  0.68592292  0.62149400  1
  Be  Be2  1  0.31407708  0.60995220  0.87850600  1
  Be  Be3  1  0.68592292  0.39004780  0.12149400  1
  Be  Be4  1  0.93557108  0.89004780  0.12149400  1
  Be  Be5  1  0.26855480  0.06442892  0.37850600  1
  Be  Be6  1  0.10995220  0.81407708  0.37850600  1
  Be  Be7  1  0.89004780  0.18592292  0.62149400  1
  Be  Be8  1  0.60995220  0.56442892  0.37850600  1
  Be  Be9  1  0.18592292  0.73144520  0.12149400  1
  Be  Be10  1  0.56442892  0.76855480  0.87850600  1
  Be  Be11  1  0.73144520  0.93557108  0.62149400  1
  Be  Be12  1  0.43557108  0.23144520  0.12149400  1
  Be  Be13  1  0.76855480  0.31407708  0.37850600  1
  Be  Be14  1  0.81407708  0.26855480  0.87850600  1
  Be  Be15  1  0.06442892  0.10995220  0.87850600  1
  Cl  Cl16  1  0.25000000  0.57694056  0.00000000  1
  Cl  Cl17  1  0.75000000  0.42305944  -0.00000000  1
  Cl  Cl18  1  0.00715148  0.25715148  0.01430296  1
  Cl  Cl19  1  0.16964767  0.66468441  0.24950679  1
  Cl  Cl20  1  0.58482237  0.57985912  0.74950679  1
  Cl  Cl21  1  0.49284852  0.24284852  0.98569704  1
  Cl  Cl22  1  0.07985912  0.08482237  0.24950679  1
  Cl  Cl23  1  0.57985912  0.16468441  0.24950679  1
  Cl  Cl24  1  0.42305944  0.25000000  0.50000000  1
  Cl  Cl25  1  0.75715148  0.50715148  0.51430296  1
  Cl  Cl26  1  0.33035233  0.41517763  0.75049321  1
  Cl  Cl27  1  0.83035233  0.33531559  0.75049321  1
  Cl  Cl28  1  0.25000000  0.07694056  0.00000000  1
  Cl  Cl29  1  0.24284852  0.49284852  0.48569704  1
  Cl  Cl30  1  0.92305944  0.25000000  0.50000000  1
  Cl  Cl31  1  0.41517763  0.42014088  0.25049321  1
  Cl  Cl32  1  0.99284852  0.74284852  0.98569704  1
  Cl  Cl33  1  0.08482237  0.16964767  0.74950679  1
  Cl  Cl34  1  0.83531559  0.33035233  0.25049321  1
  Cl  Cl35  1  0.42014088  0.83531559  0.75049321  1
  Cl  Cl36  1  0.33531559  0.92014088  0.25049321  1
  Cl  Cl37  1  0.07694056  0.75000000  0.50000000  1
  Cl  Cl38  1  0.75000000  0.92305944  -0.00000000  1
  Cl  Cl39  1  0.66468441  0.07985912  0.74950679  1
  Cl  Cl40  1  0.66964767  0.58482237  0.24950679  1
  Cl  Cl41  1  0.16468441  0.66964767  0.74950679  1
  Cl  Cl42  1  0.74284852  0.99284852  0.48569704  1
  Cl  Cl43  1  0.92014088  0.91517763  0.75049321  1
  Cl  Cl44  1  0.91517763  0.83035233  0.25049321  1
  Cl  Cl45  1  0.50715148  0.75715148  0.01430296  1
  Cl  Cl46  1  0.57694056  0.75000000  0.50000000  1
  Cl  Cl47  1  0.25715148  0.00715148  0.51430296  1
