# generated using pymatgen
data_Bi13O20
_symmetry_space_group_name_H-M   'P 1'
_cell_length_a   8.90982328
_cell_length_b   8.90982431
_cell_length_c   8.90982553
_cell_angle_alpha   109.47152513
_cell_angle_beta   109.47079924
_cell_angle_gamma   109.47141438
_symmetry_Int_Tables_number   1
_chemical_formula_structural   Bi13O20
_chemical_formula_sum   'Bi13 O20'
_cell_volume   544.48400707
_cell_formula_units_Z   1
loop_
 _symmetry_equiv_pos_site_id
 _symmetry_equiv_pos_as_xyz
  1  'x, y, z'
loop_
 _atom_site_type_symbol
 _atom_site_label
 _atom_site_symmetry_multiplicity
 _atom_site_fract_x
 _atom_site_fract_y
 _atom_site_fract_z
 _atom_site_occupancy
  Bi  Bi0  1  0.19080111  0.85447306  0.69288327  1
  Bi  Bi1  1  0.33632819  0.83840837  0.14552856  1
  Bi  Bi2  1  0.49791690  0.30712174  0.16158974  1
  Bi  Bi3  1  0.00000000  0.00000082  0.00000182  1
  Bi  Bi4  1  0.50208310  0.66367285  0.80920484  1
  Bi  Bi5  1  0.83840622  0.14552083  0.33632462  1
  Bi  Bi6  1  0.69288043  0.19079861  0.85447329  1
  Bi  Bi7  1  0.66367181  0.80920036  0.50207917  1
  Bi  Bi8  1  0.85446483  0.69287739  0.19079373  1
  Bi  Bi9  1  0.16159278  0.49791841  0.30711461  1
  Bi  Bi10  1  0.14553517  0.33632990  0.83841356  1
  Bi  Bi11  1  0.80919889  0.50208116  0.66367295  1
  Bi  Bi12  1  0.30711957  0.16159286  0.49791918  1
  O  O13  1  0.24801052  0.62432159  0.88885507  1
  O  O14  1  0.00000001  0.76007900  -0.00000179  1
  O  O15  1  0.99999899  -0.00000179  0.76008000  1
  O  O16  1  0.11114796  0.73546403  0.35915494  1
  O  O17  1  0.00000009  0.00000033  0.37156232  1
  O  O18  1  -0.00000009  0.37156423  0.00000123  1
  O  O19  1  0.37631459  0.75199665  0.64084954  1
  O  O20  1  0.26453433  0.37568234  0.62368675  1
  O  O21  1  0.35915482  0.11114420  0.73546438  1
  O  O22  1  0.23992065  0.23992085  0.23991908  1
  O  O23  1  0.37567932  0.62368824  0.26453466  1
  O  O24  1  0.62844048  0.62844090  0.62844034  1
  O  O25  1  0.62431968  0.88885533  0.24800791  1
  O  O26  1  0.64084618  0.37630957  0.75199038  1
  O  O27  1  0.62368641  0.26453496  0.37568106  1
  O  O28  1  0.75198848  0.64084556  0.37631007  1
  O  O29  1  0.73546567  0.35915042  0.11114701  1
  O  O30  1  0.88885404  0.24800898  0.62431707  1
  O  O31  1  0.37156152  -0.00000013  0.00000043  1
  O  O32  1  0.76007735  -0.00000157  0.00000019  1
