# generated using pymatgen
data_Br2Cl3
_symmetry_space_group_name_H-M   'P 1'
_cell_length_a   6.05411831
_cell_length_b   6.05411831
_cell_length_c   6.05411907
_cell_angle_alpha   90.93092879
_cell_angle_beta   90.93092879
_cell_angle_gamma   90.93092627
_symmetry_Int_Tables_number   1
_chemical_formula_structural   Br2Cl3
_chemical_formula_sum   'Br2 Cl3'
_cell_volume   221.80885218
_cell_formula_units_Z   1
loop_
 _symmetry_equiv_pos_site_id
 _symmetry_equiv_pos_as_xyz
  1  'x, y, z'
loop_
 _atom_site_type_symbol
 _atom_site_label
 _atom_site_symmetry_multiplicity
 _atom_site_fract_x
 _atom_site_fract_y
 _atom_site_fract_z
 _atom_site_occupancy
  Br  Br0  1  0.81875675  0.81875675  0.81875675  1
  Br  Br1  1  0.18124325  0.18124325  0.18124325  1
  Cl  Cl2  1  0.00000000  0.00000000  0.50000000  1
  Cl  Cl3  1  0.50000000  0.00000000  -0.00000000  1
  Cl  Cl4  1  0.00000000  0.50000000  -0.00000000  1
