# generated using pymatgen
data_CO2
_symmetry_space_group_name_H-M   'P 1'
_cell_length_a   6.95146829
_cell_length_b   6.95146674
_cell_length_c   6.95146829
_cell_angle_alpha   89.44924024
_cell_angle_beta   90.55076219
_cell_angle_gamma   90.55075976
_symmetry_Int_Tables_number   1
_chemical_formula_structural   CO2
_chemical_formula_sum   'C8 O16'
_cell_volume   335.86884974
_cell_formula_units_Z   8
loop_
 _symmetry_equiv_pos_site_id
 _symmetry_equiv_pos_as_xyz
  1  'x, y, z'
loop_
 _atom_site_type_symbol
 _atom_site_label
 _atom_site_symmetry_multiplicity
 _atom_site_fract_x
 _atom_site_fract_y
 _atom_site_fract_z
 _atom_site_occupancy
  C  C0  1  0.50000000  0.50000000  0.50000000  1
  C  C1  1  0.00000000  0.00000000  -0.00000000  1
  C  C2  1  0.00211746  0.50211746  0.25000000  1
  C  C3  1  0.75000000  0.99788254  0.50211746  1
  C  C4  1  0.49788254  0.25000000  0.99788254  1
  C  C5  1  0.50211746  0.75000000  0.00211746  1
  C  C6  1  0.99788254  0.49788254  0.75000000  1
  C  C7  1  0.25000000  0.00211746  0.49788254  1
  O  O8  1  0.59599233  0.40400767  0.40400767  1
  O  O9  1  0.09599233  0.90400767  0.90400767  1
  O  O10  1  0.40400767  0.59599233  0.59599233  1
  O  O11  1  0.90400767  0.09599233  0.09599233  1
  O  O12  1  0.90144304  0.60287958  0.16029429  1
  O  O13  1  0.83970571  0.09855696  0.60287958  1
  O  O14  1  0.39712042  0.16029429  0.09855696  1
  O  O15  1  0.40144304  0.66029429  0.10287958  1
  O  O16  1  0.89712042  0.59855696  0.66029429  1
  O  O17  1  0.33970571  0.10287958  0.59855696  1
  O  O18  1  0.09855696  0.39712042  0.83970571  1
  O  O19  1  0.16029429  0.90144304  0.39712042  1
  O  O20  1  0.60287958  0.83970571  0.90144304  1
  O  O21  1  0.59855696  0.33970571  0.89712042  1
  O  O22  1  0.10287958  0.40144304  0.33970571  1
  O  O23  1  0.66029429  0.89712042  0.40144304  1
