# generated using pymatgen
data_Ca3Si4
_symmetry_space_group_name_H-M   'P 1'
_cell_length_a   8.53594114
_cell_length_b   8.53594114
_cell_length_c   14.90513477
_cell_angle_alpha   90.00000000
_cell_angle_beta   90.00000000
_cell_angle_gamma   119.99999235
_symmetry_Int_Tables_number   1
_chemical_formula_structural   Ca3Si4
_chemical_formula_sum   'Ca18 Si24'
_cell_volume   940.52294733
_cell_formula_units_Z   6
loop_
 _symmetry_equiv_pos_site_id
 _symmetry_equiv_pos_as_xyz
  1  'x, y, z'
loop_
 _atom_site_type_symbol
 _atom_site_label
 _atom_site_symmetry_multiplicity
 _atom_site_fract_x
 _atom_site_fract_y
 _atom_site_fract_z
 _atom_site_occupancy
  Ca  Ca0  1  -0.00000000  -0.00000000  -0.00000000  1
  Ca  Ca1  1  -0.00000000  -0.00000000  0.50000000  1
  Ca  Ca2  1  0.66666700  0.33333300  0.75000000  1
  Ca  Ca3  1  0.33333300  0.66666700  0.25000000  1
  Ca  Ca4  1  0.57856263  0.90636345  0.90257140  1
  Ca  Ca5  1  0.42143737  0.09363655  0.09742860  1
  Ca  Ca6  1  0.32780182  0.42143737  0.90257140  1
  Ca  Ca7  1  0.42143737  0.09363655  0.40257140  1
  Ca  Ca8  1  0.67219818  0.57856263  0.09742860  1
  Ca  Ca9  1  0.57856263  0.90636345  0.59742860  1
  Ca  Ca10  1  0.09363655  0.67219818  0.90257140  1
  Ca  Ca11  1  0.67219818  0.57856263  0.40257140  1
  Ca  Ca12  1  0.90636345  0.32780182  0.09742860  1
  Ca  Ca13  1  0.32780182  0.42143737  0.59742860  1
  Ca  Ca14  1  0.90636345  0.32780182  0.40257140  1
  Ca  Ca15  1  0.09363655  0.67219818  0.59742860  1
  Ca  Ca16  1  -0.00000000  -0.00000000  0.75000000  1
  Ca  Ca17  1  -0.00000000  -0.00000000  0.25000000  1
  Si  Si18  1  0.61733410  0.67348526  0.75000000  1
  Si  Si19  1  0.38266590  0.32651474  0.25000000  1
  Si  Si20  1  0.05615016  0.38266590  0.75000000  1
  Si  Si21  1  0.94384984  0.61733410  0.25000000  1
  Si  Si22  1  0.32651474  0.94384984  0.75000000  1
  Si  Si23  1  0.67348526  0.05615016  0.25000000  1
  Si  Si24  1  0.33333300  0.66666700  0.75000000  1
  Si  Si25  1  0.66666700  0.33333300  0.25000000  1
  Si  Si26  1  0.66666700  0.33333300  0.94203663  1
  Si  Si27  1  0.33333300  0.66666700  0.05796337  1
  Si  Si28  1  0.33333300  0.66666700  0.44203663  1
  Si  Si29  1  0.66666700  0.33333300  0.55796337  1
  Si  Si30  1  0.90891701  0.26399941  0.88932607  1
  Si  Si31  1  0.09108299  0.73600059  0.11067393  1
  Si  Si32  1  0.35508240  0.09108299  0.88932607  1
  Si  Si33  1  0.09108299  0.73600059  0.38932607  1
  Si  Si34  1  0.64491760  0.90891701  0.11067393  1
  Si  Si35  1  0.90891701  0.26399941  0.61067393  1
  Si  Si36  1  0.73600059  0.64491760  0.88932607  1
  Si  Si37  1  0.64491760  0.90891701  0.38932607  1
  Si  Si38  1  0.26399941  0.35508240  0.11067393  1
  Si  Si39  1  0.35508240  0.09108299  0.61067393  1
  Si  Si40  1  0.26399941  0.35508240  0.38932607  1
  Si  Si41  1  0.73600059  0.64491760  0.61067393  1
