# generated using pymatgen
data_Ca2Si
_symmetry_space_group_name_H-M   'P 1'
_cell_length_a   4.83215368
_cell_length_b   7.60545113
_cell_length_c   9.02186365
_cell_angle_alpha   90.00000000
_cell_angle_beta   90.00000000
_cell_angle_gamma   90.00000000
_symmetry_Int_Tables_number   1
_chemical_formula_structural   Ca2Si
_chemical_formula_sum   'Ca8 Si4'
_cell_volume   331.55988262
_cell_formula_units_Z   4
loop_
 _symmetry_equiv_pos_site_id
 _symmetry_equiv_pos_as_xyz
  1  'x, y, z'
loop_
 _atom_site_type_symbol
 _atom_site_label
 _atom_site_symmetry_multiplicity
 _atom_site_fract_x
 _atom_site_fract_y
 _atom_site_fract_z
 _atom_site_occupancy
  Ca  Ca0  1  0.75000000  0.34566195  0.92493003  1
  Ca  Ca1  1  0.25000000  0.65433805  0.07506997  1
  Ca  Ca2  1  0.75000000  0.84566195  0.57506997  1
  Ca  Ca3  1  0.25000000  0.15433805  0.42493003  1
  Ca  Ca4  1  0.25000000  0.01909100  0.82141002  1
  Ca  Ca5  1  0.75000000  0.98090900  0.17858998  1
  Ca  Ca6  1  0.25000000  0.51909100  0.67858998  1
  Ca  Ca7  1  0.75000000  0.48090900  0.32141002  1
  Si  Si8  1  0.25000000  0.75305103  0.39599024  1
  Si  Si9  1  0.75000000  0.24694897  0.60400976  1
  Si  Si10  1  0.25000000  0.25305103  0.10400976  1
  Si  Si11  1  0.75000000  0.74694897  0.89599024  1
