# generated using pymatgen
data_Ce2S3
_symmetry_space_group_name_H-M   'P 1'
_cell_length_a   22.14108384
_cell_length_b   8.52744509
_cell_length_c   8.52744549
_cell_angle_alpha   90.00000598
_cell_angle_beta   54.71023198
_cell_angle_gamma   54.71023008
_symmetry_Int_Tables_number   1
_chemical_formula_structural   Ce2S3
_chemical_formula_sum   'Ce16 S24'
_cell_volume   928.39161532
_cell_formula_units_Z   8
loop_
 _symmetry_equiv_pos_site_id
 _symmetry_equiv_pos_as_xyz
  1  'x, y, z'
loop_
 _atom_site_type_symbol
 _atom_site_label
 _atom_site_symmetry_multiplicity
 _atom_site_fract_x
 _atom_site_fract_y
 _atom_site_fract_z
 _atom_site_occupancy
  Ce  Ce0  1  0.99518410  0.39465540  0.25111462  1
  Ce  Ce1  1  0.08560475  0.62159237  0.37159237  1
  Ce  Ce2  1  0.16666700  0.25000000  0.63034428  1
  Ce  Ce3  1  0.24772825  0.87840763  0.12840763  1
  Ce  Ce4  1  0.33814890  0.38020769  0.24888538  1
  Ce  Ce5  1  0.33814890  0.10534460  0.73666691  1
  Ce  Ce6  1  0.16666700  0.75000000  0.86965572  1
  Ce  Ce7  1  0.49518410  0.26333309  0.61979231  1
  Ce  Ce8  1  0.58560475  0.87159237  0.12159237  1
  Ce  Ce9  1  0.66666700  0.36965572  0.25000000  1
  Ce  Ce10  1  0.66666700  0.13034428  0.75000000  1
  Ce  Ce11  1  0.49518410  0.75111462  0.89465540  1
  Ce  Ce12  1  0.74772825  0.62840763  0.37840763  1
  Ce  Ce13  1  0.83814890  0.23666691  0.60534460  1
  Ce  Ce14  1  0.99518410  0.11979231  0.76333309  1
  Ce  Ce15  1  0.83814890  0.74888538  0.88020769  1
  S  S16  1  0.05051661  0.99954502  0.35082485  1
  S  S17  1  0.12533473  0.48784010  0.99274612  1
  S  S18  1  0.05051661  0.34890414  0.49762431  1
  S  S19  1  0.28281639  0.15109586  0.14917515  1
  S  S20  1  0.28281639  0.50045498  0.00237569  1
  S  S21  1  0.20799827  0.01215990  0.86875131  1
  S  S22  1  0.12533473  0.63615472  0.63124869  1
  S  S23  1  0.38428217  0.00497400  0.34441728  1
  S  S24  1  0.20799827  0.86384528  0.50725388  1
  S  S25  1  0.44905183  0.49726278  0.99502600  1
  S  S26  1  0.38428217  0.34218049  0.50273722  1
  S  S27  1  0.62533473  0.13124869  0.13615472  1
  S  S28  1  0.62533473  0.49274612  0.98784010  1
  S  S29  1  0.55051661  0.99762431  0.84890414  1
  S  S30  1  0.44905183  0.65558272  0.65781951  1
  S  S31  1  0.70799827  0.00725388  0.36384528  1
  S  S32  1  0.55051661  0.85082485  0.49954502  1
  S  S33  1  0.78281639  0.50237569  0.00045498  1
  S  S34  1  0.70799827  0.36875131  0.51215990  1
  S  S35  1  0.94905183  0.15781951  0.15558272  1
  S  S36  1  0.94905183  0.49502600  0.99726278  1
  S  S37  1  0.88428217  0.00273722  0.84218049  1
  S  S38  1  0.78281639  0.64917515  0.65109586  1
  S  S39  1  0.88428217  0.84441728  0.50497400  1
