# generated using pymatgen
data_CeCl3
_symmetry_space_group_name_H-M   'P 1'
_cell_length_a   7.50452676
_cell_length_b   7.50453451
_cell_length_c   4.29801741
_cell_angle_alpha   90.00000000
_cell_angle_beta   90.00000000
_cell_angle_gamma   120.00003215
_symmetry_Int_Tables_number   1
_chemical_formula_structural   CeCl3
_chemical_formula_sum   'Ce2 Cl6'
_cell_volume   209.62628175
_cell_formula_units_Z   2
loop_
 _symmetry_equiv_pos_site_id
 _symmetry_equiv_pos_as_xyz
  1  'x, y, z'
loop_
 _atom_site_type_symbol
 _atom_site_label
 _atom_site_symmetry_multiplicity
 _atom_site_fract_x
 _atom_site_fract_y
 _atom_site_fract_z
 _atom_site_occupancy
  Ce  Ce0  1  0.66666700  0.33333400  0.75000000  1
  Ce  Ce1  1  0.33333300  0.66666600  0.25000000  1
  Cl  Cl2  1  0.91462145  0.61128523  0.25000000  1
  Cl  Cl3  1  0.08537855  0.38871477  0.75000000  1
  Cl  Cl4  1  0.61128523  0.69666378  0.75000000  1
  Cl  Cl5  1  0.38871477  0.30333622  0.25000000  1
  Cl  Cl6  1  0.30333622  0.91462145  0.75000000  1
  Cl  Cl7  1  0.69666378  0.08537855  0.25000000  1
