# generated using pymatgen
data_CeS2
_symmetry_space_group_name_H-M   'P 1'
_cell_length_a   4.13435693
_cell_length_b   4.13435693
_cell_length_c   7.47229371
_cell_angle_alpha   90.00000000
_cell_angle_beta   90.00000000
_cell_angle_gamma   90.00000000
_symmetry_Int_Tables_number   1
_chemical_formula_structural   CeS2
_chemical_formula_sum   'Ce2 S4'
_cell_volume   127.72322314
_cell_formula_units_Z   2
loop_
 _symmetry_equiv_pos_site_id
 _symmetry_equiv_pos_as_xyz
  1  'x, y, z'
loop_
 _atom_site_type_symbol
 _atom_site_label
 _atom_site_symmetry_multiplicity
 _atom_site_fract_x
 _atom_site_fract_y
 _atom_site_fract_z
 _atom_site_occupancy
  Ce  Ce0  1  0.75000000  0.75000000  0.74546842  1
  Ce  Ce1  1  0.25000000  0.25000000  0.25453158  1
  S  S2  1  0.75000000  0.75000000  0.36581336  1
  S  S3  1  0.25000000  0.25000000  0.63418664  1
  S  S4  1  0.75000000  0.25000000  0.00000000  1
  S  S5  1  0.25000000  0.75000000  -0.00000000  1
