# generated using pymatgen
data_CeAl2
_symmetry_space_group_name_H-M   'P 1'
_cell_length_a   5.61973076
_cell_length_b   5.61973140
_cell_length_c   5.61972975
_cell_angle_alpha   59.99999139
_cell_angle_beta   59.99999981
_cell_angle_gamma   60.00000115
_symmetry_Int_Tables_number   1
_chemical_formula_structural   CeAl2
_chemical_formula_sum   'Ce2 Al4'
_cell_volume   125.49646010
_cell_formula_units_Z   2
loop_
 _symmetry_equiv_pos_site_id
 _symmetry_equiv_pos_as_xyz
  1  'x, y, z'
loop_
 _atom_site_type_symbol
 _atom_site_label
 _atom_site_symmetry_multiplicity
 _atom_site_fract_x
 _atom_site_fract_y
 _atom_site_fract_z
 _atom_site_occupancy
  Ce  Ce0  1  0.87500000  0.87500000  0.87500000  1
  Ce  Ce1  1  0.12500000  0.12500000  0.12500000  1
  Al  Al2  1  0.50000000  0.50000000  0.50000000  1
  Al  Al3  1  0.50000000  0.50000000  -0.00000000  1
  Al  Al4  1  0.00000000  0.50000000  0.50000000  1
  Al  Al5  1  0.50000000  0.00000000  0.50000000  1
