# generated using pymatgen
data_CeSi
_symmetry_space_group_name_H-M   'P 1'
_cell_length_a   3.96364308
_cell_length_b   5.96541162
_cell_length_c   8.27128040
_cell_angle_alpha   89.99865271
_cell_angle_beta   89.99957685
_cell_angle_gamma   89.99997358
_symmetry_Int_Tables_number   1
_chemical_formula_structural   CeSi
_chemical_formula_sum   'Ce4 Si4'
_cell_volume   195.57246055
_cell_formula_units_Z   4
loop_
 _symmetry_equiv_pos_site_id
 _symmetry_equiv_pos_as_xyz
  1  'x, y, z'
loop_
 _atom_site_type_symbol
 _atom_site_label
 _atom_site_symmetry_multiplicity
 _atom_site_fract_x
 _atom_site_fract_y
 _atom_site_fract_z
 _atom_site_occupancy
  Ce  Ce0  1  0.25000000  0.38516745  0.67974238  1
  Ce  Ce1  1  0.75000000  0.61483313  0.32026039  1
  Ce  Ce2  1  0.75000000  0.88517645  0.82018143  1
  Ce  Ce3  1  0.25000000  0.11484185  0.17982038  1
  Si  Si4  1  0.25000000  0.88510555  0.53329536  1
  Si  Si5  1  0.75000000  0.11488763  0.46669782  1
  Si  Si6  1  0.75000000  0.38514345  0.96669110  1
  Si  Si7  1  0.24999900  0.61484349  0.03330914  1
