# generated using pymatgen
data_CeAl
_symmetry_space_group_name_H-M   'P 1'
_cell_length_a   5.38485701
_cell_length_b   6.02968406
_cell_length_c   6.02988890
_cell_angle_alpha   102.62726765
_cell_angle_beta   90.00000000
_cell_angle_gamma   90.00000000
_symmetry_Int_Tables_number   1
_chemical_formula_structural   CeAl
_chemical_formula_sum   'Ce4 Al4'
_cell_volume   191.04891199
_cell_formula_units_Z   4
loop_
 _symmetry_equiv_pos_site_id
 _symmetry_equiv_pos_as_xyz
  1  'x, y, z'
loop_
 _atom_site_type_symbol
 _atom_site_label
 _atom_site_symmetry_multiplicity
 _atom_site_fract_x
 _atom_site_fract_y
 _atom_site_fract_z
 _atom_site_occupancy
  Ce  Ce0  1  0.25000000  0.36980734  0.98866708  1
  Ce  Ce1  1  0.75000000  0.63019266  0.01133292  1
  Ce  Ce2  1  0.25000000  0.98863470  0.36977509  1
  Ce  Ce3  1  0.75000000  0.01136530  0.63022491  1
  Al  Al4  1  0.25000000  0.82286529  0.82294836  1
  Al  Al5  1  0.75000000  0.17713471  0.17705164  1
  Al  Al6  1  0.00000000  0.50000000  0.50000000  1
  Al  Al7  1  0.50000000  0.50000000  0.50000000  1
