# generated using pymatgen
data_CoCl2
_symmetry_space_group_name_H-M   'P 1'
_cell_length_a   6.26918106
_cell_length_b   6.26918105
_cell_length_c   6.26918043
_cell_angle_alpha   32.87437618
_cell_angle_beta   32.87437609
_cell_angle_gamma   32.87438292
_symmetry_Int_Tables_number   1
_chemical_formula_structural   CoCl2
_chemical_formula_sum   'Co1 Cl2'
_cell_volume   64.59071595
_cell_formula_units_Z   1
loop_
 _symmetry_equiv_pos_site_id
 _symmetry_equiv_pos_as_xyz
  1  'x, y, z'
loop_
 _atom_site_type_symbol
 _atom_site_label
 _atom_site_symmetry_multiplicity
 _atom_site_fract_x
 _atom_site_fract_y
 _atom_site_fract_z
 _atom_site_occupancy
  Co  Co0  1  -0.00000000  0.00000000  -0.00000000  1
  Cl  Cl1  1  0.74081789  0.74081789  0.74081789  1
  Cl  Cl2  1  0.25918211  0.25918211  0.25918211  1
