# generated using pymatgen
data_CoO2
_symmetry_space_group_name_H-M   'P 1'
_cell_length_a   2.78248424
_cell_length_b   2.78248389
_cell_length_c   8.49764034
_cell_angle_alpha   80.67449651
_cell_angle_beta   80.67449894
_cell_angle_gamma   59.82336230
_symmetry_Int_Tables_number   1
_chemical_formula_structural   CoO2
_chemical_formula_sum   'Co1 O2'
_cell_volume   55.87195158
_cell_formula_units_Z   1
loop_
 _symmetry_equiv_pos_site_id
 _symmetry_equiv_pos_as_xyz
  1  'x, y, z'
loop_
 _atom_site_type_symbol
 _atom_site_label
 _atom_site_symmetry_multiplicity
 _atom_site_fract_x
 _atom_site_fract_y
 _atom_site_fract_z
 _atom_site_occupancy
  Co  Co0  1  -0.00034606  -0.00034606  0.00672101  1
  O  O1  1  0.36971770  0.36971770  0.89459777  1
  O  O2  1  0.62963036  0.62963036  0.11868022  1
