# generated using pymatgen
data_CrH
_symmetry_space_group_name_H-M   'P 1'
_cell_length_a   2.65505259
_cell_length_b   2.65505287
_cell_length_c   2.65505126
_cell_angle_alpha   59.99999493
_cell_angle_beta   59.99999138
_cell_angle_gamma   59.99999773
_symmetry_Int_Tables_number   1
_chemical_formula_structural   CrH
_chemical_formula_sum   'Cr1 H1'
_cell_volume   13.23439710
_cell_formula_units_Z   1
loop_
 _symmetry_equiv_pos_site_id
 _symmetry_equiv_pos_as_xyz
  1  'x, y, z'
loop_
 _atom_site_type_symbol
 _atom_site_label
 _atom_site_symmetry_multiplicity
 _atom_site_fract_x
 _atom_site_fract_y
 _atom_site_fract_z
 _atom_site_occupancy
  Cr  Cr0  1  -0.00000000  -0.00000000  -0.00000000  1
  H  H1  1  0.50000000  0.50000000  0.50000000  1
