# generated using pymatgen
data_Cr6O11
_symmetry_space_group_name_H-M   'P 1'
_cell_length_a   5.33646792
_cell_length_b   6.93095016
_cell_length_c   9.38342084
_cell_angle_alpha   89.63676376
_cell_angle_beta   81.09894864
_cell_angle_gamma   72.27198511
_symmetry_Int_Tables_number   1
_chemical_formula_structural   Cr6O11
_chemical_formula_sum   'Cr12 O22'
_cell_volume   326.29366252
_cell_formula_units_Z   2
loop_
 _symmetry_equiv_pos_site_id
 _symmetry_equiv_pos_as_xyz
  1  'x, y, z'
loop_
 _atom_site_type_symbol
 _atom_site_label
 _atom_site_symmetry_multiplicity
 _atom_site_fract_x
 _atom_site_fract_y
 _atom_site_fract_z
 _atom_site_occupancy
  Cr  Cr0  1  0.27109504  0.64021902  0.58617841  1
  Cr  Cr1  1  0.72890496  0.35978098  0.41382159  1
  Cr  Cr2  1  0.26883931  0.14007554  0.58733623  1
  Cr  Cr3  1  0.73116069  0.85992446  0.41266377  1
  Cr  Cr4  1  0.67303663  0.30701909  0.06133234  1
  Cr  Cr5  1  0.32696337  0.69298091  0.93866766  1
  Cr  Cr6  1  0.19129032  0.56930302  0.24104922  1
  Cr  Cr7  1  0.80870968  0.43069698  0.75895078  1
  Cr  Cr8  1  0.18597613  0.07690325  0.23973642  1
  Cr  Cr9  1  0.81402387  0.92309675  0.76026358  1
  Cr  Cr10  1  0.31941431  0.19242704  0.94023308  1
  Cr  Cr11  1  0.68058569  0.80757296  0.05976692  1
  O  O12  1  0.15909695  0.26210168  0.77983656  1
  O  O13  1  0.84090305  0.73789832  0.22016344  1
  O  O14  1  0.86016348  0.07943378  0.35096486  1
  O  O15  1  0.13983652  0.92056622  0.64903514  1
  O  O16  1  0.09135350  0.69914094  0.42425579  1
  O  O17  1  0.90864650  0.30085906  0.57574421  1
  O  O18  1  0.28451466  0.45544489  0.03500783  1
  O  O19  1  0.71548534  0.54455511  0.96499217  1
  O  O20  1  0.02564341  0.16644470  0.06879826  1
  O  O21  1  0.97435659  0.83355530  0.93120174  1
  O  O22  1  0.37613616  0.01671440  0.39570845  1
  O  O23  1  0.62386384  0.98328560  0.60429155  1
  O  O24  1  0.40062940  0.36022548  0.52663562  1
  O  O25  1  0.59937060  0.63977452  0.47336438  1
  O  O26  1  0.31909868  0.79318931  0.14729808  1
  O  O27  1  0.68090132  0.20681069  0.85270192  1
  O  O28  1  0.06053516  0.35709681  0.30129028  1
  O  O29  1  0.93946484  0.64290319  0.69870972  1
  O  O30  1  0.51435934  0.09203391  0.11177438  1
  O  O31  1  0.48564066  0.90796609  0.88822562  1
  O  O32  1  0.55432957  0.42366029  0.24835342  1
  O  O33  1  0.44567043  0.57633971  0.75164658  1
