# generated using pymatgen
data_CrB4
_symmetry_space_group_name_H-M   'P 1'
_cell_length_a   2.84567529
_cell_length_b   4.70638119
_cell_length_c   5.44720661
_cell_angle_alpha   90.00000000
_cell_angle_beta   90.00000000
_cell_angle_gamma   90.00000000
_symmetry_Int_Tables_number   1
_chemical_formula_structural   CrB4
_chemical_formula_sum   'Cr2 B8'
_cell_volume   72.95352658
_cell_formula_units_Z   2
loop_
 _symmetry_equiv_pos_site_id
 _symmetry_equiv_pos_as_xyz
  1  'x, y, z'
loop_
 _atom_site_type_symbol
 _atom_site_label
 _atom_site_symmetry_multiplicity
 _atom_site_fract_x
 _atom_site_fract_y
 _atom_site_fract_z
 _atom_site_occupancy
  Cr  Cr0  1  0.50000000  0.50000000  0.50000000  1
  Cr  Cr1  1  0.00000000  -0.00000000  -0.00000000  1
  B  B2  1  0.50000000  0.66334107  0.86817067  1
  B  B3  1  0.50000000  0.33665893  0.13182933  1
  B  B4  1  -0.00000000  0.16334107  0.63182933  1
  B  B5  1  0.00000000  0.83665893  0.36817067  1
  B  B6  1  0.50000000  0.72524491  0.18024983  1
  B  B7  1  0.50000000  0.27475509  0.81975017  1
  B  B8  1  0.00000000  0.22524491  0.31975017  1
  B  B9  1  0.00000000  0.77475509  0.68024983  1
