# generated using pymatgen
data_CrO2
_symmetry_space_group_name_H-M   'P 1'
_cell_length_a   2.99871500
_cell_length_b   8.68041509
_cell_length_c   10.40384906
_cell_angle_alpha   90.01462576
_cell_angle_beta   90.00002461
_cell_angle_gamma   90.00003231
_symmetry_Int_Tables_number   1
_chemical_formula_structural   CrO2
_chemical_formula_sum   'Cr8 O16'
_cell_volume   270.81312842
_cell_formula_units_Z   8
loop_
 _symmetry_equiv_pos_site_id
 _symmetry_equiv_pos_as_xyz
  1  'x, y, z'
loop_
 _atom_site_type_symbol
 _atom_site_label
 _atom_site_symmetry_multiplicity
 _atom_site_fract_x
 _atom_site_fract_y
 _atom_site_fract_z
 _atom_site_occupancy
  Cr  Cr0  1  0.24999900  0.41578600  0.10517500  1
  Cr  Cr1  1  0.75000000  0.08418700  0.60509900  1
  Cr  Cr2  1  0.25000000  0.91588100  0.39492400  1
  Cr  Cr3  1  0.75000000  0.58415300  0.89484900  1
  Cr  Cr4  1  0.74999900  0.55728900  0.38502500  1
  Cr  Cr5  1  0.25000000  0.44275200  0.61493900  1
  Cr  Cr6  1  0.75000000  0.05708500  0.11507900  1
  Cr  Cr7  1  0.25000000  0.94286500  0.88491400  1
  O  O8  1  0.24999900  0.92153000  0.06845000  1
  O  O9  1  0.75000000  0.07842800  0.93159100  1
  O  O10  1  0.24999900  0.42164900  0.43147800  1
  O  O11  1  0.75000000  0.57840100  0.56845800  1
  O  O12  1  0.25000000  0.02840500  0.71775700  1
  O  O13  1  0.74999900  0.97163900  0.28225800  1
  O  O14  1  0.24999900  0.52826100  0.78220800  1
  O  O15  1  0.74999900  0.47173500  0.21778900  1
  O  O16  1  0.25000000  0.61077100  0.01592900  1
  O  O17  1  0.74999900  0.38916600  0.98402800  1
  O  O18  1  0.25000000  0.11081600  0.48405400  1
  O  O19  1  0.74999900  0.88925000  0.51599900  1
  O  O20  1  0.74999900  0.79866500  0.85872600  1
  O  O21  1  0.25000000  0.20125100  0.14129800  1
  O  O22  1  0.25000000  0.70138200  0.35873500  1
  O  O23  1  0.74999900  0.29865300  0.64124100  1
