# generated using pymatgen
data_CsO2
_symmetry_space_group_name_H-M   'P 1'
_cell_length_a   4.36552708
_cell_length_b   4.36552630
_cell_length_c   4.76272305
_cell_angle_alpha   117.27757161
_cell_angle_beta   117.27755202
_cell_angle_gamma   90.00000320
_symmetry_Int_Tables_number   1
_chemical_formula_structural   CsO2
_chemical_formula_sum   'Cs1 O2'
_cell_volume   69.12138740
_cell_formula_units_Z   1
loop_
 _symmetry_equiv_pos_site_id
 _symmetry_equiv_pos_as_xyz
  1  'x, y, z'
loop_
 _atom_site_type_symbol
 _atom_site_label
 _atom_site_symmetry_multiplicity
 _atom_site_fract_x
 _atom_site_fract_y
 _atom_site_fract_z
 _atom_site_occupancy
  Cs  Cs0  1  -0.00000000  0.00000000  -0.00000000  1
  O  O1  1  0.59233962  0.59233962  0.18467923  1
  O  O2  1  0.40766038  0.40766038  0.81532077  1
