# generated using pymatgen
data_Cs6K7
_symmetry_space_group_name_H-M   'P 1'
_cell_length_a   9.23749188
_cell_length_b   9.23749188
_cell_length_c   34.39810219
_cell_angle_alpha   90.00000000
_cell_angle_beta   90.00000000
_cell_angle_gamma   119.99999124
_symmetry_Int_Tables_number   1
_chemical_formula_structural   Cs6K7
_chemical_formula_sum   'Cs12 K14'
_cell_volume   2541.98680232
_cell_formula_units_Z   2
loop_
 _symmetry_equiv_pos_site_id
 _symmetry_equiv_pos_as_xyz
  1  'x, y, z'
loop_
 _atom_site_type_symbol
 _atom_site_label
 _atom_site_symmetry_multiplicity
 _atom_site_fract_x
 _atom_site_fract_y
 _atom_site_fract_z
 _atom_site_occupancy
  Cs  Cs0  1  0.33333300  0.66666700  0.97700101  1
  Cs  Cs1  1  0.66666600  0.33333200  0.17838445  1
  Cs  Cs2  1  0.33333400  0.66666800  0.67838445  1
  Cs  Cs3  1  0.33333400  0.66666800  0.82161555  1
  Cs  Cs4  1  0.66666700  0.33333300  0.02299899  1
  Cs  Cs5  1  0.66666600  0.33333200  0.32161555  1
  Cs  Cs6  1  0.33333300  0.66666700  0.52299899  1
  Cs  Cs7  1  0.66666700  0.33333300  0.47700101  1
  Cs  Cs8  1  0.00000000  0.00000000  0.25000000  1
  Cs  Cs9  1  0.66666700  0.33333300  0.75000000  1
  Cs  Cs10  1  0.00000000  0.00000000  0.75000000  1
  Cs  Cs11  1  0.33333300  0.66666700  0.25000000  1
  K  K12  1  0.16715814  0.33431629  0.38554018  1
  K  K13  1  0.16715814  0.83284286  0.38554018  1
  K  K14  1  0.66568271  0.83284186  0.11445982  1
  K  K15  1  0.16715814  0.83284286  0.11445982  1
  K  K16  1  0.66568271  0.83284186  0.38554018  1
  K  K17  1  0.83284186  0.16715714  0.61445982  1
  K  K18  1  0.33431729  0.16715814  0.88554018  1
  K  K19  1  0.33431729  0.16715814  0.61445982  1
  K  K20  1  0.16715814  0.33431629  0.11445982  1
  K  K21  1  0.83284186  0.16715714  0.88554018  1
  K  K22  1  0.83284186  0.66568371  0.61445982  1
  K  K23  1  0.00000000  0.00000000  0.50000000  1
  K  K24  1  0.83284186  0.66568371  0.88554018  1
  K  K25  1  0.00000000  0.00000000  0.00000000  1
