# generated using pymatgen
data_Cs2O
_symmetry_space_group_name_H-M   'P 1'
_cell_length_a   7.17669473
_cell_length_b   6.32787821
_cell_length_c   4.33950415
_cell_angle_alpha   90.00000000
_cell_angle_beta   90.00000000
_cell_angle_gamma   90.00000000
_symmetry_Int_Tables_number   1
_chemical_formula_structural   Cs2O
_chemical_formula_sum   'Cs4 O2'
_cell_volume   197.07098772
_cell_formula_units_Z   2
loop_
 _symmetry_equiv_pos_site_id
 _symmetry_equiv_pos_as_xyz
  1  'x, y, z'
loop_
 _atom_site_type_symbol
 _atom_site_label
 _atom_site_symmetry_multiplicity
 _atom_site_fract_x
 _atom_site_fract_y
 _atom_site_fract_z
 _atom_site_occupancy
  Cs  Cs0  1  0.24485079  0.91132605  0.50000000  1
  Cs  Cs1  1  0.25514921  0.41132605  0.00000000  1
  Cs  Cs2  1  0.74485079  0.58867395  -0.00000000  1
  Cs  Cs3  1  0.75514921  0.08867395  0.50000000  1
  O  O4  1  0.00000000  0.00000000  -0.00000000  1
  O  O5  1  0.50000000  0.50000000  0.50000000  1
