# generated using pymatgen
data_Cs3K
_symmetry_space_group_name_H-M   'P 1'
_cell_length_a   10.78645226
_cell_length_b   10.78645724
_cell_length_c   8.70592955
_cell_angle_alpha   90.00000000
_cell_angle_beta   90.00000000
_cell_angle_gamma   120.00001858
_symmetry_Int_Tables_number   1
_chemical_formula_structural   Cs3K
_chemical_formula_sum   'Cs6 K2'
_cell_volume   877.20914509
_cell_formula_units_Z   2
loop_
 _symmetry_equiv_pos_site_id
 _symmetry_equiv_pos_as_xyz
  1  'x, y, z'
loop_
 _atom_site_type_symbol
 _atom_site_label
 _atom_site_symmetry_multiplicity
 _atom_site_fract_x
 _atom_site_fract_y
 _atom_site_fract_z
 _atom_site_occupancy
  Cs  Cs0  1  0.83045543  0.16954457  0.75000000  1
  Cs  Cs1  1  0.33909015  0.16954457  0.75000000  1
  Cs  Cs2  1  0.83045543  0.66090985  0.75000000  1
  Cs  Cs3  1  0.16954457  0.83045543  0.25000000  1
  Cs  Cs4  1  0.66090985  0.83045543  0.25000000  1
  Cs  Cs5  1  0.16954457  0.33909015  0.25000000  1
  K  K6  1  0.66666700  0.33333300  0.25000000  1
  K  K7  1  0.33333300  0.66666700  0.75000000  1
