# generated using pymatgen
data_CuO2
_symmetry_space_group_name_H-M   'P 1'
_cell_length_a   2.82523000
_cell_length_b   4.34342400
_cell_length_c   5.39883001
_cell_angle_alpha   90.00000000
_cell_angle_beta   105.16811222
_cell_angle_gamma   90.00000000
_symmetry_Int_Tables_number   1
_chemical_formula_structural   CuO2
_chemical_formula_sum   'Cu2 O4'
_cell_volume   63.94197158
_cell_formula_units_Z   2
loop_
 _symmetry_equiv_pos_site_id
 _symmetry_equiv_pos_as_xyz
  1  'x, y, z'
loop_
 _atom_site_type_symbol
 _atom_site_label
 _atom_site_symmetry_multiplicity
 _atom_site_fract_x
 _atom_site_fract_y
 _atom_site_fract_z
 _atom_site_occupancy
  Cu  Cu0  1  0.83274700  0.25000000  0.66549400  1
  Cu  Cu1  1  0.16725300  0.75000000  0.33450600  1
  O  O2  1  0.44851400  0.25000000  0.89702800  1
  O  O3  1  0.55148600  0.75000000  0.10297200  1
  O  O4  1  0.21103000  0.25000000  0.42206000  1
  O  O5  1  0.78897000  0.75000000  0.57794000  1
