# generated using pymatgen
data_CuCl
_symmetry_space_group_name_H-M   'P 1'
_cell_length_a   6.51142611
_cell_length_b   6.51142611
_cell_length_c   6.51142611
_cell_angle_alpha   90.00000000
_cell_angle_beta   90.00000000
_cell_angle_gamma   90.00000000
_symmetry_Int_Tables_number   1
_chemical_formula_structural   CuCl
_chemical_formula_sum   'Cu8 Cl8'
_cell_volume   276.07580678
_cell_formula_units_Z   8
loop_
 _symmetry_equiv_pos_site_id
 _symmetry_equiv_pos_as_xyz
  1  'x, y, z'
loop_
 _atom_site_type_symbol
 _atom_site_label
 _atom_site_symmetry_multiplicity
 _atom_site_fract_x
 _atom_site_fract_y
 _atom_site_fract_z
 _atom_site_occupancy
  Cu  Cu0  1  0.61971916  0.88028084  0.11971916  1
  Cu  Cu1  1  0.88028084  0.11971916  0.61971916  1
  Cu  Cu2  1  0.11971916  0.61971916  0.88028084  1
  Cu  Cu3  1  0.38028084  0.38028084  0.38028084  1
  Cu  Cu4  1  0.38028084  0.11971916  0.88028084  1
  Cu  Cu5  1  0.11971916  0.88028084  0.38028084  1
  Cu  Cu6  1  0.88028084  0.38028084  0.11971916  1
  Cu  Cu7  1  0.61971916  0.61971916  0.61971916  1
  Cl  Cl8  1  0.15688217  0.34311783  0.65688217  1
  Cl  Cl9  1  0.34311783  0.65688217  0.15688217  1
  Cl  Cl10  1  0.65688217  0.15688217  0.34311783  1
  Cl  Cl11  1  0.84311783  0.84311783  0.84311783  1
  Cl  Cl12  1  0.84311783  0.65688217  0.34311783  1
  Cl  Cl13  1  0.65688217  0.34311783  0.84311783  1
  Cl  Cl14  1  0.34311783  0.84311783  0.65688217  1
  Cl  Cl15  1  0.15688217  0.15688217  0.15688217  1
