# generated using pymatgen
data_DyC2
_symmetry_space_group_name_H-M   'P 1'
_cell_length_a   3.65879274
_cell_length_b   3.65879142
_cell_length_c   4.03192084
_cell_angle_alpha   116.98312322
_cell_angle_beta   116.98312170
_cell_angle_gamma   90.00000732
_symmetry_Int_Tables_number   1
_chemical_formula_structural   DyC2
_chemical_formula_sum   'Dy1 C2'
_cell_volume   41.39737008
_cell_formula_units_Z   1
loop_
 _symmetry_equiv_pos_site_id
 _symmetry_equiv_pos_as_xyz
  1  'x, y, z'
loop_
 _atom_site_type_symbol
 _atom_site_label
 _atom_site_symmetry_multiplicity
 _atom_site_fract_x
 _atom_site_fract_y
 _atom_site_fract_z
 _atom_site_occupancy
  Dy  Dy0  1  0.00000000  0.00000000  0.00000000  1
  C  C1  1  0.39525865  0.39525865  0.79051630  1
  C  C2  1  0.60474135  0.60474135  0.20948370  1
