# generated using pymatgen
data_Dy5Si3
_symmetry_space_group_name_H-M   'P 1'
_cell_length_a   8.42133240
_cell_length_b   8.42133258
_cell_length_c   6.36616790
_cell_angle_alpha   90.00000000
_cell_angle_beta   90.00000000
_cell_angle_gamma   120.00000328
_symmetry_Int_Tables_number   1
_chemical_formula_structural   Dy5Si3
_chemical_formula_sum   'Dy10 Si6'
_cell_volume   390.99421776
_cell_formula_units_Z   2
loop_
 _symmetry_equiv_pos_site_id
 _symmetry_equiv_pos_as_xyz
  1  'x, y, z'
loop_
 _atom_site_type_symbol
 _atom_site_label
 _atom_site_symmetry_multiplicity
 _atom_site_fract_x
 _atom_site_fract_y
 _atom_site_fract_z
 _atom_site_occupancy
  Dy  Dy0  1  0.99999900  0.75723066  0.75000000  1
  Dy  Dy1  1  0.99999900  0.24276834  0.25000000  1
  Dy  Dy2  1  0.75723166  0.75723066  0.25000000  1
  Dy  Dy3  1  0.75723166  0.00000100  0.75000000  1
  Dy  Dy4  1  0.24276934  0.24276834  0.75000000  1
  Dy  Dy5  1  0.24276934  0.00000100  0.25000000  1
  Dy  Dy6  1  0.66666700  0.33333300  -0.00000000  1
  Dy  Dy7  1  0.33333300  0.66666700  0.50000000  1
  Dy  Dy8  1  0.33333300  0.66666700  -0.00000000  1
  Dy  Dy9  1  0.66666700  0.33333300  0.50000000  1
  Si  Si10  1  0.39410525  0.00000100  0.75000000  1
  Si  Si11  1  0.39410525  0.39410425  0.25000000  1
  Si  Si12  1  0.99999900  0.60589475  0.25000000  1
  Si  Si13  1  0.99999900  0.39410425  0.75000000  1
  Si  Si14  1  0.60589575  0.60589475  0.75000000  1
  Si  Si15  1  0.60589575  0.00000100  0.25000000  1
