# generated using pymatgen
data_DyAl3
_symmetry_space_group_name_H-M   'P 1'
_cell_length_a   6.08151389
_cell_length_b   6.08151335
_cell_length_c   9.51327587
_cell_angle_alpha   90.00000000
_cell_angle_beta   90.00000000
_cell_angle_gamma   119.99998235
_symmetry_Int_Tables_number   1
_chemical_formula_structural   DyAl3
_chemical_formula_sum   'Dy4 Al12'
_cell_volume   304.70821809
_cell_formula_units_Z   4
loop_
 _symmetry_equiv_pos_site_id
 _symmetry_equiv_pos_as_xyz
  1  'x, y, z'
loop_
 _atom_site_type_symbol
 _atom_site_label
 _atom_site_symmetry_multiplicity
 _atom_site_fract_x
 _atom_site_fract_y
 _atom_site_fract_z
 _atom_site_occupancy
  Dy  Dy0  1  0.00000000  0.00000000  0.50000000  1
  Dy  Dy1  1  0.66666700  0.33333300  0.75000000  1
  Dy  Dy2  1  0.33333300  0.66666700  0.25000000  1
  Dy  Dy3  1  0.00000000  0.00000000  0.00000000  1
  Al  Al4  1  0.18341889  0.81658111  0.75000000  1
  Al  Al5  1  0.63316223  0.81658111  0.75000000  1
  Al  Al6  1  0.00000000  0.50000000  0.00000000  1
  Al  Al7  1  0.50000000  0.50000000  0.00000000  1
  Al  Al8  1  0.81658111  0.63316223  0.25000000  1
  Al  Al9  1  0.36683777  0.18341889  0.25000000  1
  Al  Al10  1  0.18341889  0.36683777  0.75000000  1
  Al  Al11  1  0.50000000  0.50000000  0.50000000  1
  Al  Al12  1  0.50000000  0.00000000  0.50000000  1
  Al  Al13  1  0.81658111  0.18341889  0.25000000  1
  Al  Al14  1  0.50000000  0.00000000  0.00000000  1
  Al  Al15  1  0.00000000  0.50000000  0.50000000  1
