# generated using pymatgen
data_Eu2O3
_symmetry_space_group_name_H-M   'P 1'
_cell_length_a   9.43467851
_cell_length_b   9.40974275
_cell_length_c   9.42815678
_cell_angle_alpha   109.38926236
_cell_angle_beta   109.52512848
_cell_angle_gamma   109.41905856
_symmetry_Int_Tables_number   1
_chemical_formula_structural   Eu2O3
_chemical_formula_sum   'Eu16 O24'
_cell_volume   644.96839359
_cell_formula_units_Z   8
loop_
 _symmetry_equiv_pos_site_id
 _symmetry_equiv_pos_as_xyz
  1  'x, y, z'
loop_
 _atom_site_type_symbol
 _atom_site_label
 _atom_site_symmetry_multiplicity
 _atom_site_fract_x
 _atom_site_fract_y
 _atom_site_fract_z
 _atom_site_occupancy
  Eu  Eu0  1  0.50000000  0.00000000  0.50000000  1
  Eu  Eu1  1  0.50000000  0.50000000  -0.00000000  1
  Eu  Eu2  1  0.00000000  0.50000000  0.50000000  1
  Eu  Eu3  1  0.00000000  0.00000000  -0.00000000  1
  Eu  Eu4  1  0.78055819  0.24983355  0.02989892  1
  Eu  Eu5  1  0.71890033  0.74918886  0.46975850  1
  Eu  Eu6  1  0.24950821  0.03045343  0.77975678  1
  Eu  Eu7  1  0.75033845  0.46949527  0.71955387  1
  Eu  Eu8  1  0.02991897  0.77999018  0.25031048  1
  Eu  Eu9  1  0.47074403  0.72149734  0.75088141  1
  Eu  Eu10  1  0.21944181  0.75016645  0.97010108  1
  Eu  Eu11  1  0.28109967  0.25081114  0.53024150  1
  Eu  Eu12  1  0.75049179  0.96954657  0.22024322  1
  Eu  Eu13  1  0.24966155  0.53050473  0.28044613  1
  Eu  Eu14  1  0.97008103  0.22000982  0.74968952  1
  Eu  Eu15  1  0.52925597  0.27850266  0.24911859  1
  O  O16  1  0.49400535  0.23210343  0.46187531  1
  O  O17  1  0.23100303  0.26467013  0.76332170  1
  O  O18  1  0.00599476  0.46718956  0.73672689  1
  O  O19  1  0.26774580  0.03063059  0.03582579  1
  O  O20  1  0.23032223  0.46221517  0.49173812  1
  O  O21  1  0.26730435  0.75980313  0.23008147  1
  O  O22  1  0.47006055  0.73933411  0.00770894  1
  O  O23  1  0.03148546  0.03832027  0.27019118  1
  O  O24  1  0.46099986  0.49417729  0.23130418  1
  O  O25  1  0.76305382  0.22659929  0.26790607  1
  O  O26  1  0.73694142  0.00681630  0.46657991  1
  O  O27  1  0.04021499  0.27085929  0.03264927  1
  O  O28  1  0.50599465  0.76789657  0.53812469  1
  O  O29  1  0.76899697  0.73532987  0.23667830  1
  O  O30  1  0.99400524  0.53281044  0.26327311  1
  O  O31  1  0.73225420  0.96936941  0.96417421  1
  O  O32  1  0.76967777  0.53778483  0.50826188  1
  O  O33  1  0.73269565  0.24019687  0.76991853  1
  O  O34  1  0.52993945  0.26066589  0.99229106  1
  O  O35  1  0.96851454  0.96167973  0.72980882  1
  O  O36  1  0.53900014  0.50582271  0.76869582  1
  O  O37  1  0.23694618  0.77340071  0.73209393  1
  O  O38  1  0.26305858  0.99318370  0.53342009  1
  O  O39  1  0.95978501  0.72914071  0.96735073  1
