# generated using pymatgen
data_EuSi2
_symmetry_space_group_name_H-M   'P 1'
_cell_length_a   4.27870470
_cell_length_b   4.27870470
_cell_length_c   7.48160471
_cell_angle_alpha   106.61553882
_cell_angle_beta   106.61553882
_cell_angle_gamma   90.00000000
_symmetry_Int_Tables_number   1
_chemical_formula_structural   EuSi2
_chemical_formula_sum   'Eu2 Si4'
_cell_volume   125.26906669
_cell_formula_units_Z   2
loop_
 _symmetry_equiv_pos_site_id
 _symmetry_equiv_pos_as_xyz
  1  'x, y, z'
loop_
 _atom_site_type_symbol
 _atom_site_label
 _atom_site_symmetry_multiplicity
 _atom_site_fract_x
 _atom_site_fract_y
 _atom_site_fract_z
 _atom_site_occupancy
  Eu  Eu0  1  0.25000000  0.75000000  0.49999900  1
  Eu  Eu1  1  -0.00000000  -0.00000000  0.00000100  1
  Si  Si2  1  0.66586334  0.16586334  0.33172669  1
  Si  Si3  1  0.58413666  0.58413666  0.16827331  1
  Si  Si4  1  0.83413666  0.33413666  0.66827331  1
  Si  Si5  1  0.41586334  0.41586334  0.83172669  1
