# generated using pymatgen
data_EuP7
_symmetry_space_group_name_H-M   'P 1'
_cell_length_a   5.70454853
_cell_length_b   10.63569249
_cell_length_c   11.50356109
_cell_angle_alpha   106.20251819
_cell_angle_beta   90.00000000
_cell_angle_gamma   90.00000000
_symmetry_Int_Tables_number   1
_chemical_formula_structural   EuP7
_chemical_formula_sum   'Eu4 P28'
_cell_volume   670.22076866
_cell_formula_units_Z   4
loop_
 _symmetry_equiv_pos_site_id
 _symmetry_equiv_pos_as_xyz
  1  'x, y, z'
loop_
 _atom_site_type_symbol
 _atom_site_label
 _atom_site_symmetry_multiplicity
 _atom_site_fract_x
 _atom_site_fract_y
 _atom_site_fract_z
 _atom_site_occupancy
  Eu  Eu0  1  0.89267870  0.46308222  0.21618783  1
  Eu  Eu1  1  0.60732130  0.96308222  0.71618783  1
  Eu  Eu2  1  0.10732130  0.53691778  0.78381217  1
  Eu  Eu3  1  0.39267870  0.03691778  0.28381217  1
  P  P4  1  0.54099457  0.41888405  0.41723299  1
  P  P5  1  0.95900543  0.91888405  0.91723299  1
  P  P6  1  0.45900543  0.58111595  0.58276701  1
  P  P7  1  0.04099457  0.08111595  0.08276701  1
  P  P8  1  0.72175099  0.35191812  0.93341831  1
  P  P9  1  0.77824901  0.85191812  0.43341831  1
  P  P10  1  0.27824901  0.64808188  0.06658169  1
  P  P11  1  0.22175099  0.14808188  0.56658169  1
  P  P12  1  0.70638032  0.25397038  0.47165005  1
  P  P13  1  0.79361968  0.75397038  0.97165005  1
  P  P14  1  0.29361968  0.74602962  0.52834995  1
  P  P15  1  0.20638032  0.24602962  0.02834995  1
  P  P16  1  0.70504857  0.17593543  0.13641371  1
  P  P17  1  0.79495143  0.67593543  0.63641371  1
  P  P18  1  0.29495143  0.82406457  0.86358629  1
  P  P19  1  0.20504857  0.32406457  0.36358629  1
  P  P20  1  0.56746070  0.22399252  0.63869655  1
  P  P21  1  0.93253930  0.72399252  0.13869655  1
  P  P22  1  0.43253930  0.77600748  0.36130345  1
  P  P23  1  0.06746070  0.27600748  0.86130345  1
  P  P24  1  0.59587279  0.41186356  0.77841191  1
  P  P25  1  0.90412721  0.91186356  0.27841191  1
  P  P26  1  0.40412721  0.58813644  0.22158809  1
  P  P27  1  0.09587279  0.08813644  0.72158809  1
  P  P28  1  0.55512028  0.17174758  0.95931198  1
  P  P29  1  0.94487972  0.67174758  0.45931198  1
  P  P30  1  0.44487972  0.82825242  0.04068802  1
  P  P31  1  0.05512028  0.32825242  0.54068802  1
