# generated using pymatgen
data_Gd10S19
_symmetry_space_group_name_H-M   'P 1'
_cell_length_a   8.75422124
_cell_length_b   8.75398508
_cell_length_c   15.88744486
_cell_angle_alpha   90.00001716
_cell_angle_beta   89.99995324
_cell_angle_gamma   90.00163396
_symmetry_Int_Tables_number   1
_chemical_formula_structural   Gd10S19
_chemical_formula_sum   'Gd20 S38'
_cell_volume   1217.52356685
_cell_formula_units_Z   2
loop_
 _symmetry_equiv_pos_site_id
 _symmetry_equiv_pos_as_xyz
  1  'x, y, z'
loop_
 _atom_site_type_symbol
 _atom_site_label
 _atom_site_symmetry_multiplicity
 _atom_site_fract_x
 _atom_site_fract_y
 _atom_site_fract_z
 _atom_site_occupancy
  Gd  Gd0  1  0.55468610  0.85428207  0.39686287  1
  Gd  Gd1  1  0.25000013  0.75000002  0.11462181  1
  Gd  Gd2  1  0.15172240  0.04124836  0.37819619  1
  Gd  Gd3  1  0.05468639  0.35428203  0.60313721  1
  Gd  Gd4  1  0.95868594  0.65175023  0.87819458  1
  Gd  Gd5  1  0.34827682  0.45875180  0.37819591  1
  Gd  Gd6  1  0.84827751  0.95875112  0.62180396  1
  Gd  Gd7  1  0.74999982  0.25000046  0.38530694  1
  Gd  Gd8  1  0.65172305  0.54124856  0.62180379  1
  Gd  Gd9  1  0.44531350  0.14571793  0.60313714  1
  Gd  Gd10  1  0.45868566  0.15175062  0.12180606  1
  Gd  Gd11  1  0.25000037  0.74999967  0.61469297  1
  Gd  Gd12  1  0.74999992  0.25000013  0.88537816  1
  Gd  Gd13  1  0.54131440  0.84824957  0.87819427  1
  Gd  Gd14  1  0.04131417  0.34824992  0.12180583  1
  Gd  Gd15  1  0.85417486  0.94537359  0.10312106  1
  Gd  Gd16  1  0.64582468  0.55462626  0.10312026  1
  Gd  Gd17  1  0.94531321  0.64571786  0.39686263  1
  Gd  Gd18  1  0.14582518  0.05462641  0.89687894  1
  Gd  Gd19  1  0.35417448  0.44537334  0.89687951  1
  S  S20  1  0.54840551  0.84845858  0.57276389  1
  S  S21  1  0.94627000  0.64879303  0.06209418  1
  S  S22  1  0.84847370  0.95161731  0.92720428  1
  S  S23  1  0.04840378  0.34846297  0.42723707  1
  S  S24  1  0.11370954  0.57515771  0.25000045  1
  S  S25  1  0.85122286  0.94627032  0.43793497  1
  S  S26  1  0.38629033  0.92484247  0.25000061  1
  S  S27  1  0.25000002  0.75000015  0.93485595  1
  S  S28  1  0.14877699  0.05372940  0.56206513  1
  S  S29  1  0.57517553  0.38632728  0.24997647  1
  S  S30  1  0.92482409  0.11367314  0.24997656  1
  S  S31  1  0.64877686  0.55372961  0.43793496  1
  S  S32  1  0.69556069  0.02955130  0.25054055  1
  S  S33  1  0.34847350  0.45161765  0.07279591  1
  S  S34  1  0.52957731  0.30443643  0.75055279  1
  S  S35  1  0.19556147  0.52955022  0.74945968  1
  S  S36  1  0.80443856  0.47044972  0.25054039  1
  S  S37  1  0.05372980  0.35120702  0.93790597  1
  S  S38  1  0.02957727  0.80443663  0.24944724  1
  S  S39  1  0.35122313  0.44627042  0.56206506  1
  S  S40  1  0.55372992  0.85120698  0.06209415  1
  S  S41  1  0.44627001  0.14879292  0.93790600  1
  S  S42  1  0.15152619  0.04838243  0.07279580  1
  S  S43  1  0.65152642  0.54838249  0.92720425  1
  S  S44  1  0.30443915  0.97044876  0.74945957  1
  S  S45  1  0.75000016  0.74999975  0.74999781  1
  S  S46  1  0.74999990  0.24999986  0.56504624  1
  S  S47  1  0.74999985  0.24999988  0.06514424  1
  S  S48  1  0.61370950  0.07515752  0.74999942  1
  S  S49  1  0.95159622  0.65153689  0.57276284  1
  S  S50  1  0.88629060  0.42484210  0.74999962  1
  S  S51  1  0.42482426  0.61367261  0.75002360  1
  S  S52  1  0.07517583  0.88632682  0.75002359  1
  S  S53  1  0.47042491  0.69556594  0.24944550  1
  S  S54  1  0.97042276  0.19556323  0.75055279  1
  S  S55  1  0.24999991  0.75000000  0.43495376  1
  S  S56  1  0.45159416  0.15154135  0.42723631  1
  S  S57  1  0.24999973  0.25000016  0.25000232  1
