# generated using pymatgen
data_Gd2Cl3
_symmetry_space_group_name_H-M   'P 1'
_cell_length_a   3.91386332
_cell_length_b   7.99965874
_cell_length_c   9.65994060
_cell_angle_alpha   70.33995074
_cell_angle_beta   78.32033204
_cell_angle_gamma   75.83730545
_symmetry_Int_Tables_number   1
_chemical_formula_structural   Gd2Cl3
_chemical_formula_sum   'Gd4 Cl6'
_cell_volume   273.76022380
_cell_formula_units_Z   2
loop_
 _symmetry_equiv_pos_site_id
 _symmetry_equiv_pos_as_xyz
  1  'x, y, z'
loop_
 _atom_site_type_symbol
 _atom_site_label
 _atom_site_symmetry_multiplicity
 _atom_site_fract_x
 _atom_site_fract_y
 _atom_site_fract_z
 _atom_site_occupancy
  Gd  Gd0  1  0.45141482  0.75196656  0.34266511  1
  Gd  Gd1  1  0.72742293  0.78248488  0.75988807  1
  Gd  Gd2  1  0.99639849  0.00019054  0.00455470  1
  Gd  Gd3  1  0.18267315  0.53420274  0.09797590  1
  Cl  Cl4  1  0.54327699  0.12282263  0.78787738  1
  Cl  Cl5  1  0.63569327  0.41172885  0.31460569  1
  Cl  Cl6  1  0.93038633  0.57918926  0.55735505  1
  Cl  Cl7  1  0.24826479  0.95518354  0.54524533  1
  Cl  Cl8  1  0.35684165  0.11230089  0.17181777  1
  Cl  Cl9  1  0.82225359  0.42216112  0.93067900  1
