# generated using pymatgen
data_Gd2C3
_symmetry_space_group_name_H-M   'P 1'
_cell_length_a   7.22068343
_cell_length_b   7.22068283
_cell_length_c   7.22068283
_cell_angle_alpha   109.47122070
_cell_angle_beta   109.47122397
_cell_angle_gamma   109.47121386
_symmetry_Int_Tables_number   1
_chemical_formula_structural   Gd2C3
_chemical_formula_sum   'Gd8 C12'
_cell_volume   289.80973483
_cell_formula_units_Z   4
loop_
 _symmetry_equiv_pos_site_id
 _symmetry_equiv_pos_as_xyz
  1  'x, y, z'
loop_
 _atom_site_type_symbol
 _atom_site_label
 _atom_site_symmetry_multiplicity
 _atom_site_fract_x
 _atom_site_fract_y
 _atom_site_fract_z
 _atom_site_occupancy
  Gd  Gd0  1  0.10124726  -0.00000000  0.50000000  1
  Gd  Gd1  1  0.00000000  0.50000000  0.10124626  1
  Gd  Gd2  1  0.50000000  0.10124726  -0.00000000  1
  Gd  Gd3  1  0.39875274  0.39875274  0.39875274  1
  Gd  Gd4  1  0.00000000  0.50000000  0.60124726  1
  Gd  Gd5  1  0.60124726  -0.00000000  0.50000000  1
  Gd  Gd6  1  0.50000000  0.60124726  -0.00000000  1
  Gd  Gd7  1  0.89875274  0.89875274  0.89875374  1
  C  C8  1  0.29508502  0.75000000  0.54508502  1
  C  C9  1  0.20491498  0.25000000  0.95491498  1
  C  C10  1  0.04508502  0.25000000  0.79508502  1
  C  C11  1  0.45491498  0.75000000  0.70491498  1
  C  C12  1  0.75000000  0.54508502  0.29508502  1
  C  C13  1  0.25000000  0.95491498  0.20491498  1
  C  C14  1  0.25000000  0.79508502  0.04508502  1
  C  C15  1  0.75000000  0.70491498  0.45491498  1
  C  C16  1  0.54508502  0.29508502  0.75000000  1
  C  C17  1  0.95491498  0.20491498  0.25000000  1
  C  C18  1  0.79508502  0.04508502  0.25000000  1
  C  C19  1  0.70491498  0.45491498  0.75000000  1
