# generated using pymatgen
data_H4C
_symmetry_space_group_name_H-M   'P 1'
_cell_length_a   4.29362590
_cell_length_b   4.29362260
_cell_length_c   4.29362210
_cell_angle_alpha   109.47121362
_cell_angle_beta   109.47121242
_cell_angle_gamma   109.47123787
_symmetry_Int_Tables_number   1
_chemical_formula_structural   H4C
_chemical_formula_sum   'H4 C1'
_cell_volume   60.93263870
_cell_formula_units_Z   1
loop_
 _symmetry_equiv_pos_site_id
 _symmetry_equiv_pos_as_xyz
  1  'x, y, z'
loop_
 _atom_site_type_symbol
 _atom_site_label
 _atom_site_symmetry_multiplicity
 _atom_site_fract_x
 _atom_site_fract_y
 _atom_site_fract_z
 _atom_site_occupancy
  H  H0  1  0.25368713  0.25368713  0.25368713  1
  H  H1  1  0.00000000  0.00000000  0.74631287  1
  H  H2  1  0.00000000  0.74631287  0.00000000  1
  H  H3  1  0.74631287  -0.00000000  -0.00000000  1
  C  C4  1  -0.00000000  -0.00000000  -0.00000000  1
