# generated using pymatgen
data_H2C
_symmetry_space_group_name_H-M   'P 1'
_cell_length_a   7.15876328
_cell_length_b   4.92581135
_cell_length_c   2.54458791
_cell_angle_alpha   90.00000000
_cell_angle_beta   90.00000000
_cell_angle_gamma   90.00000000
_symmetry_Int_Tables_number   1
_chemical_formula_structural   H2C
_chemical_formula_sum   'H8 C4'
_cell_volume   89.72908441
_cell_formula_units_Z   4
loop_
 _symmetry_equiv_pos_site_id
 _symmetry_equiv_pos_as_xyz
  1  'x, y, z'
loop_
 _atom_site_type_symbol
 _atom_site_label
 _atom_site_symmetry_multiplicity
 _atom_site_fract_x
 _atom_site_fract_y
 _atom_site_fract_z
 _atom_site_occupancy
  H  H0  1  0.19269094  0.96329542  0.25000000  1
  H  H1  1  0.80730906  0.03670458  0.75000000  1
  H  H2  1  0.30730906  0.46329542  0.75000000  1
  H  H3  1  0.69269094  0.53670458  0.25000000  1
  H  H4  1  0.01469079  0.71861130  0.25000000  1
  H  H5  1  0.98530921  0.28138870  0.75000000  1
  H  H6  1  0.48530921  0.21861130  0.75000000  1
  H  H7  1  0.51469079  0.78138870  0.25000000  1
  C  C8  1  0.04023040  0.93853004  0.25000000  1
  C  C9  1  0.95976960  0.06146996  0.75000000  1
  C  C10  1  0.45976960  0.43853004  0.75000000  1
  C  C11  1  0.54023040  0.56146996  0.25000000  1
