# generated using pymatgen
data_H2O
_symmetry_space_group_name_H-M   'P 1'
_cell_length_a   4.71180371
_cell_length_b   4.71180371
_cell_length_c   4.71180371
_cell_angle_alpha   120.87421782
_cell_angle_beta   120.87421782
_cell_angle_gamma   88.49236438
_symmetry_Int_Tables_number   1
_chemical_formula_structural   H2O
_chemical_formula_sum   'H8 O4'
_cell_volume   72.96364519
_cell_formula_units_Z   4
loop_
 _symmetry_equiv_pos_site_id
 _symmetry_equiv_pos_as_xyz
  1  'x, y, z'
loop_
 _atom_site_type_symbol
 _atom_site_label
 _atom_site_symmetry_multiplicity
 _atom_site_fract_x
 _atom_site_fract_y
 _atom_site_fract_z
 _atom_site_occupancy
  H  H0  1  0.80451638  0.72318715  0.41867177  1
  H  H1  1  0.72318715  0.80451638  0.91867177  1
  H  H2  1  0.38584361  0.80451638  0.58132823  1
  H  H3  1  0.80451638  0.38584361  0.08132823  1
  H  H4  1  0.19548362  0.27681285  0.58132823  1
  H  H5  1  0.27681285  0.19548362  0.08132823  1
  H  H6  1  0.61415639  0.19548362  0.41867177  1
  H  H7  1  0.19548362  0.61415639  0.91867177  1
  O  O8  1  0.89196386  0.64196386  0.25000000  1
  O  O9  1  0.64196386  0.89196386  0.75000000  1
  O  O10  1  0.10803614  0.35803614  0.75000000  1
  O  O11  1  0.35803614  0.10803614  0.25000000  1
