# generated using pymatgen
data_Hf27P16
_symmetry_space_group_name_H-M   'P 1'
_cell_length_a   3.51854514
_cell_length_b   14.89674251
_cell_length_c   14.89674189
_cell_angle_alpha   77.11554467
_cell_angle_beta   83.21766843
_cell_angle_gamma   83.21766428
_symmetry_Int_Tables_number   1
_chemical_formula_structural   Hf27P16
_chemical_formula_sum   'Hf27 P16'
_cell_volume   752.42085595
_cell_formula_units_Z   1
loop_
 _symmetry_equiv_pos_site_id
 _symmetry_equiv_pos_as_xyz
  1  'x, y, z'
loop_
 _atom_site_type_symbol
 _atom_site_label
 _atom_site_symmetry_multiplicity
 _atom_site_fract_x
 _atom_site_fract_y
 _atom_site_fract_z
 _atom_site_occupancy
  Hf  Hf0  1  0.58042082  0.01313958  0.82601778  1
  Hf  Hf1  1  0.41957918  0.98686042  0.17398222  1
  Hf  Hf2  1  0.41957918  0.17398222  0.98686042  1
  Hf  Hf3  1  0.58042082  0.82601778  0.01313958  1
  Hf  Hf4  1  0.28453533  0.21546467  0.21546467  1
  Hf  Hf5  1  0.71546467  0.78453533  0.78453533  1
  Hf  Hf6  1  0.14757204  0.35242796  0.35242796  1
  Hf  Hf7  1  0.85242796  0.64757204  0.64757204  1
  Hf  Hf8  1  -0.00000000  0.58342276  0.41657724  1
  Hf  Hf9  1  0.00000000  0.41657724  0.58342276  1
  Hf  Hf10  1  0.00000000  -0.00000000  0.00000000  1
  Hf  Hf11  1  0.78459072  0.52878589  0.90203268  1
  Hf  Hf12  1  0.21540928  0.47121411  0.09796732  1
  Hf  Hf13  1  0.21540928  0.09796732  0.47121411  1
  Hf  Hf14  1  0.78459072  0.90203268  0.52878589  1
  Hf  Hf15  1  0.92890640  0.31670905  0.82547915  1
  Hf  Hf16  1  0.07109360  0.68329095  0.17452085  1
  Hf  Hf17  1  0.07109360  0.17452085  0.68329095  1
  Hf  Hf18  1  0.92890640  0.82547915  0.31670905  1
  Hf  Hf19  1  0.81736422  0.31580683  0.04946374  1
  Hf  Hf20  1  0.18263578  0.68419317  0.95053626  1
  Hf  Hf21  1  0.18263578  0.95053626  0.68419317  1
  Hf  Hf22  1  0.81736422  0.04946374  0.31580683  1
  Hf  Hf23  1  0.60874189  0.52275619  0.25976004  1
  Hf  Hf24  1  0.39125811  0.47724381  0.74023996  1
  Hf  Hf25  1  0.39125811  0.74023996  0.47724381  1
  Hf  Hf26  1  0.60874189  0.25976004  0.52275619  1
  P  P27  1  -0.00000000  0.13849779  0.86150221  1
  P  P28  1  0.00000000  0.86150221  0.13849779  1
  P  P29  1  0.50000000  0.69105783  0.30894217  1
  P  P30  1  0.50000000  0.30894217  0.69105783  1
  P  P31  1  0.43915580  0.56084420  0.56084420  1
  P  P32  1  0.56084420  0.43915580  0.43915580  1
  P  P33  1  0.12468886  0.87531114  0.87531114  1
  P  P34  1  0.87531114  0.12468886  0.12468886  1
  P  P35  1  0.65648470  0.61228990  0.07474271  1
  P  P36  1  0.34351530  0.38771010  0.92525729  1
  P  P37  1  0.34351530  0.92525729  0.38771010  1
  P  P38  1  0.65648470  0.07474271  0.61228990  1
  P  P39  1  0.71466653  0.36168419  0.20898474  1
  P  P40  1  0.28533347  0.63831581  0.79101526  1
  P  P41  1  0.28533347  0.79101526  0.63831581  1
  P  P42  1  0.71466653  0.20898474  0.36168419  1
