# generated using pymatgen
data_HoS
_symmetry_space_group_name_H-M   'P 1'
_cell_length_a   3.86884188
_cell_length_b   3.86884130
_cell_length_c   3.86884108
_cell_angle_alpha   59.99997548
_cell_angle_beta   59.99998039
_cell_angle_gamma   59.99998710
_symmetry_Int_Tables_number   1
_chemical_formula_structural   HoS
_chemical_formula_sum   'Ho1 S1'
_cell_volume   40.94751979
_cell_formula_units_Z   1
loop_
 _symmetry_equiv_pos_site_id
 _symmetry_equiv_pos_as_xyz
  1  'x, y, z'
loop_
 _atom_site_type_symbol
 _atom_site_label
 _atom_site_symmetry_multiplicity
 _atom_site_fract_x
 _atom_site_fract_y
 _atom_site_fract_z
 _atom_site_occupancy
  Ho  Ho0  1  -0.00000000  -0.00000000  0.00000000  1
  S  S1  1  0.50000000  0.50000000  0.50000000  1
