# generated using pymatgen
data_Ho4C7
_symmetry_space_group_name_H-M   'P 1'
_cell_length_a   3.67680087
_cell_length_b   6.41132273
_cell_length_c   13.62709924
_cell_angle_alpha   90.00000000
_cell_angle_beta   90.00000000
_cell_angle_gamma   104.73453053
_symmetry_Int_Tables_number   1
_chemical_formula_structural   Ho4C7
_chemical_formula_sum   'Ho8 C14'
_cell_volume   310.66986382
_cell_formula_units_Z   2
loop_
 _symmetry_equiv_pos_site_id
 _symmetry_equiv_pos_as_xyz
  1  'x, y, z'
loop_
 _atom_site_type_symbol
 _atom_site_label
 _atom_site_symmetry_multiplicity
 _atom_site_fract_x
 _atom_site_fract_y
 _atom_site_fract_z
 _atom_site_occupancy
  Ho  Ho0  1  0.63412564  0.26020471  0.94488306  1
  Ho  Ho1  1  0.36587436  0.23979529  0.44488306  1
  Ho  Ho2  1  0.36587436  0.73979529  0.05511694  1
  Ho  Ho3  1  0.63412564  0.76020471  0.55511694  1
  Ho  Ho4  1  0.94668662  0.34039798  0.66261085  1
  Ho  Ho5  1  0.05331338  0.15960202  0.16261085  1
  Ho  Ho6  1  0.05331338  0.65960202  0.33738915  1
  Ho  Ho7  1  0.94668662  0.84039798  0.83738915  1
  C  C8  1  0.00000000  0.50000000  0.50000000  1
  C  C9  1  0.00000000  0.00000000  -0.00000000  1
  C  C10  1  0.53376758  0.07690940  0.78451121  1
  C  C11  1  0.46623242  0.42309060  0.28451121  1
  C  C12  1  0.46623242  0.92309060  0.21548879  1
  C  C13  1  0.53376758  0.57690940  0.71548879  1
  C  C14  1  0.62021807  0.45297709  0.19655996  1
  C  C15  1  0.37978193  0.04702291  0.69655996  1
  C  C16  1  0.73367628  0.95031950  0.39570595  1
  C  C17  1  0.26632372  0.54968050  0.89570595  1
  C  C18  1  0.26632372  0.04968050  0.60429405  1
  C  C19  1  0.73367628  0.45031950  0.10429405  1
  C  C20  1  0.62021807  0.95297709  0.30344004  1
  C  C21  1  0.37978193  0.54702291  0.80344004  1
