# generated using pymatgen
data_KMg149
_symmetry_space_group_name_H-M   'P 1'
_cell_length_a   15.97637196
_cell_length_b   15.97637696
_cell_length_c   15.67752247
_cell_angle_alpha   90.00000000
_cell_angle_beta   90.00000000
_cell_angle_gamma   120.00001212
_symmetry_Int_Tables_number   1
_chemical_formula_structural   KMg149
_chemical_formula_sum   'K1 Mg149'
_cell_volume   3465.48858560
_cell_formula_units_Z   1
loop_
 _symmetry_equiv_pos_site_id
 _symmetry_equiv_pos_as_xyz
  1  'x, y, z'
loop_
 _atom_site_type_symbol
 _atom_site_label
 _atom_site_symmetry_multiplicity
 _atom_site_fract_x
 _atom_site_fract_y
 _atom_site_fract_z
 _atom_site_occupancy
  K  K0  1  0.00000000  0.00000000  -0.00000000  1
  Mg  Mg1  1  0.60049310  0.20098521  -0.00000000  1
  Mg  Mg2  1  0.40172859  0.20086480  -0.00000000  1
  Mg  Mg3  1  0.79913620  0.20086480  -0.00000000  1
  Mg  Mg4  1  0.00226145  0.20953292  -0.00000000  1
  Mg  Mg5  1  0.20727147  0.20953392  -0.00000000  1
  Mg  Mg6  1  0.79901379  0.39950690  -0.00000000  1
  Mg  Mg7  1  0.60049310  0.39950690  -0.00000000  1
  Mg  Mg8  1  0.40200384  0.40239511  -0.00000000  1
  Mg  Mg9  1  0.00039227  0.40239611  -0.00000000  1
  Mg  Mg10  1  0.20179968  0.40360036  -0.00000000  1
  Mg  Mg11  1  0.59760389  0.59799716  -0.00000000  1
  Mg  Mg12  1  0.00039227  0.59799716  -0.00000000  1
  Mg  Mg13  1  0.79913620  0.59827141  -0.00000000  1
  Mg  Mg14  1  0.20108930  0.60054415  -0.00000000  1
  Mg  Mg15  1  0.39945485  0.60054415  -0.00000000  1
  Mg  Mg16  1  0.00226145  0.79272753  -0.00000000  1
  Mg  Mg17  1  0.79046608  0.79272753  -0.00000000  1
  Mg  Mg18  1  0.59639964  0.79819932  -0.00000000  1
  Mg  Mg19  1  0.20179968  0.79820032  -0.00000000  1
  Mg  Mg20  1  0.39945485  0.79891070  -0.00000000  1
  Mg  Mg21  1  0.20727147  0.99773855  -0.00000000  1
  Mg  Mg22  1  0.79046608  0.99773855  -0.00000000  1
  Mg  Mg23  1  0.40200384  0.99960773  -0.00000000  1
  Mg  Mg24  1  0.59760389  0.99960773  -0.00000000  1
  Mg  Mg25  1  0.86808412  0.13191588  0.16531310  1
  Mg  Mg26  1  0.26383176  0.13191588  0.16531310  1
  Mg  Mg27  1  0.86808412  0.73616724  0.16531310  1
  Mg  Mg28  1  0.66666700  0.33333300  0.16623663  1
  Mg  Mg29  1  0.46587356  0.13321718  0.16661712  1
  Mg  Mg30  1  0.66734361  0.13321718  0.16661712  1
  Mg  Mg31  1  0.86678282  0.33265539  0.16661712  1
  Mg  Mg32  1  0.46587356  0.33265639  0.16661712  1
  Mg  Mg33  1  0.66734361  0.53412644  0.16661712  1
  Mg  Mg34  1  0.86678282  0.53412744  0.16661712  1
  Mg  Mg35  1  0.26696972  0.53393944  0.16728296  1
  Mg  Mg36  1  0.46606056  0.73303028  0.16728296  1
  Mg  Mg37  1  0.26696972  0.73303028  0.16728296  1
  Mg  Mg38  1  0.06705270  0.53352635  0.16759622  1
  Mg  Mg39  1  0.46647465  0.53352635  0.16759622  1
  Mg  Mg40  1  0.46647465  0.93294830  0.16759622  1
  Mg  Mg41  1  0.26786662  0.33573545  0.16798050  1
  Mg  Mg42  1  0.06786983  0.33573645  0.16798050  1
  Mg  Mg43  1  0.66426355  0.73213338  0.16798050  1
  Mg  Mg44  1  0.06786983  0.73213438  0.16798050  1
  Mg  Mg45  1  0.26786662  0.93213017  0.16798050  1
  Mg  Mg46  1  0.66426355  0.93213017  0.16798050  1
  Mg  Mg47  1  0.06962725  0.13925551  0.17357712  1
  Mg  Mg48  1  0.86074449  0.93037275  0.17357712  1
  Mg  Mg49  1  0.06962725  0.93037275  0.17357712  1
  Mg  Mg50  1  0.79995942  0.20004058  0.33284441  1
  Mg  Mg51  1  0.40008116  0.20004058  0.33284441  1
  Mg  Mg52  1  0.79995942  0.59991884  0.33284441  1
  Mg  Mg53  1  0.60011942  0.20023885  0.33318223  1
  Mg  Mg54  1  0.79976115  0.39988058  0.33318223  1
  Mg  Mg55  1  0.60011942  0.39988058  0.33318223  1
  Mg  Mg56  1  0.19986975  0.59993488  0.33388207  1
  Mg  Mg57  1  0.40006512  0.59993488  0.33388207  1
  Mg  Mg58  1  0.40006512  0.80013025  0.33388207  1
  Mg  Mg59  1  0.59936163  0.00013642  0.33395246  1
  Mg  Mg60  1  0.40077478  0.00013642  0.33395246  1
  Mg  Mg61  1  0.40077478  0.40063837  0.33395246  1
  Mg  Mg62  1  0.99986358  0.40063837  0.33395246  1
  Mg  Mg63  1  0.59936163  0.59922522  0.33395246  1
  Mg  Mg64  1  0.99986358  0.59922522  0.33395246  1
  Mg  Mg65  1  0.00000000  0.00000000  0.33366937  1
  Mg  Mg66  1  0.20018209  0.40036417  0.33383307  1
  Mg  Mg67  1  0.20018209  0.79981791  0.33383307  1
  Mg  Mg68  1  0.59963583  0.79981791  0.33383307  1
  Mg  Mg69  1  0.79888502  0.00040416  0.33482828  1
  Mg  Mg70  1  0.20151813  0.00040416  0.33482828  1
  Mg  Mg71  1  0.20151813  0.20111498  0.33482828  1
  Mg  Mg72  1  0.99959584  0.20111498  0.33482828  1
  Mg  Mg73  1  0.79888502  0.79848087  0.33482828  1
  Mg  Mg74  1  0.99959584  0.79848187  0.33482828  1
  Mg  Mg75  1  0.06679680  0.13359360  0.50000000  1
  Mg  Mg76  1  0.86625123  0.13374877  0.50000000  1
  Mg  Mg77  1  0.26749853  0.13374877  0.50000000  1
  Mg  Mg78  1  0.46696610  0.13410044  0.50000000  1
  Mg  Mg79  1  0.66713334  0.13410044  0.50000000  1
  Mg  Mg80  1  0.46696610  0.33286666  0.50000000  1
  Mg  Mg81  1  0.86589956  0.33286666  0.50000000  1
  Mg  Mg82  1  0.66666700  0.33333300  0.50000000  1
  Mg  Mg83  1  0.06729488  0.33401549  0.50000000  1
  Mg  Mg84  1  0.26672062  0.33401549  0.50000000  1
  Mg  Mg85  1  0.86589956  0.53303290  0.50000000  1
  Mg  Mg86  1  0.66713334  0.53303290  0.50000000  1
  Mg  Mg87  1  0.46655397  0.53344603  0.50000000  1
  Mg  Mg88  1  0.06689306  0.53344603  0.50000000  1
  Mg  Mg89  1  0.26689037  0.53378173  0.50000000  1
  Mg  Mg90  1  0.86625123  0.73250147  0.50000000  1
  Mg  Mg91  1  0.06729488  0.73327938  0.50000000  1
  Mg  Mg92  1  0.66598451  0.73327938  0.50000000  1
  Mg  Mg93  1  0.46621927  0.73310963  0.50000000  1
  Mg  Mg94  1  0.26689037  0.73310963  0.50000000  1
  Mg  Mg95  1  0.66598451  0.93270412  0.50000000  1
  Mg  Mg96  1  0.26672062  0.93270512  0.50000000  1
  Mg  Mg97  1  0.46655397  0.93310694  0.50000000  1
  Mg  Mg98  1  0.86640740  0.93320320  0.50000000  1
  Mg  Mg99  1  0.06679680  0.93320420  0.50000000  1
  Mg  Mg100  1  0.79888502  0.00040416  0.66517272  1
  Mg  Mg101  1  0.20151813  0.00040416  0.66517272  1
  Mg  Mg102  1  0.20151813  0.20111498  0.66517272  1
  Mg  Mg103  1  0.99959584  0.20111498  0.66517272  1
  Mg  Mg104  1  0.79888502  0.79848087  0.66517272  1
  Mg  Mg105  1  0.99959584  0.79848187  0.66517272  1
  Mg  Mg106  1  0.20018209  0.40036417  0.66616693  1
  Mg  Mg107  1  0.20018209  0.79981791  0.66616693  1
  Mg  Mg108  1  0.59963583  0.79981791  0.66616693  1
  Mg  Mg109  1  0.00000000  0.00000000  0.66633063  1
  Mg  Mg110  1  0.59936163  0.00013642  0.66604854  1
  Mg  Mg111  1  0.40077478  0.00013642  0.66604854  1
  Mg  Mg112  1  0.40077478  0.40063837  0.66604854  1
  Mg  Mg113  1  0.99986358  0.40063837  0.66604854  1
  Mg  Mg114  1  0.59936163  0.59922522  0.66604854  1
  Mg  Mg115  1  0.99986358  0.59922522  0.66604854  1
  Mg  Mg116  1  0.19986975  0.59993488  0.66611693  1
  Mg  Mg117  1  0.40006512  0.59993488  0.66611693  1
  Mg  Mg118  1  0.40006512  0.80013025  0.66611693  1
  Mg  Mg119  1  0.60011942  0.20023885  0.66681777  1
  Mg  Mg120  1  0.79976115  0.39988058  0.66681777  1
  Mg  Mg121  1  0.60011942  0.39988058  0.66681777  1
  Mg  Mg122  1  0.79995942  0.20004058  0.66715459  1
  Mg  Mg123  1  0.40008116  0.20004058  0.66715459  1
  Mg  Mg124  1  0.79995942  0.59991884  0.66715459  1
  Mg  Mg125  1  0.06962725  0.13925551  0.82642288  1
  Mg  Mg126  1  0.86074449  0.93037275  0.82642288  1
  Mg  Mg127  1  0.06962725  0.93037275  0.82642288  1
  Mg  Mg128  1  0.26786662  0.33573545  0.83201950  1
  Mg  Mg129  1  0.06786983  0.33573645  0.83201950  1
  Mg  Mg130  1  0.66426355  0.73213338  0.83201950  1
  Mg  Mg131  1  0.06786983  0.73213438  0.83201950  1
  Mg  Mg132  1  0.26786662  0.93213017  0.83201950  1
  Mg  Mg133  1  0.66426355  0.93213017  0.83201950  1
  Mg  Mg134  1  0.06705270  0.53352635  0.83240278  1
  Mg  Mg135  1  0.46647465  0.53352635  0.83240278  1
  Mg  Mg136  1  0.46647465  0.93294830  0.83240278  1
  Mg  Mg137  1  0.26696972  0.53393944  0.83271704  1
  Mg  Mg138  1  0.46606056  0.73303028  0.83271704  1
  Mg  Mg139  1  0.26696972  0.73303028  0.83271704  1
  Mg  Mg140  1  0.46587356  0.13321718  0.83338288  1
  Mg  Mg141  1  0.66734361  0.13321718  0.83338288  1
  Mg  Mg142  1  0.86678282  0.33265539  0.83338288  1
  Mg  Mg143  1  0.46587356  0.33265639  0.83338288  1
  Mg  Mg144  1  0.66734361  0.53412644  0.83338288  1
  Mg  Mg145  1  0.86678282  0.53412744  0.83338288  1
  Mg  Mg146  1  0.66666700  0.33333300  0.83376237  1
  Mg  Mg147  1  0.86808412  0.13191588  0.83468690  1
  Mg  Mg148  1  0.26383176  0.13191588  0.83468690  1
  Mg  Mg149  1  0.86808412  0.73616724  0.83468690  1
