# generated using pymatgen
data_K5Te3
_symmetry_space_group_name_H-M   'P 1'
_cell_length_a   10.25427524
_cell_length_b   10.25427524
_cell_length_c   10.25427524
_cell_angle_alpha   95.64562765
_cell_angle_beta   95.64562765
_cell_angle_gamma   143.44150396
_symmetry_Int_Tables_number   1
_chemical_formula_structural   K5Te3
_chemical_formula_sum   'K10 Te6'
_cell_volume   609.83725383
_cell_formula_units_Z   2
loop_
 _symmetry_equiv_pos_site_id
 _symmetry_equiv_pos_as_xyz
  1  'x, y, z'
loop_
 _atom_site_type_symbol
 _atom_site_label
 _atom_site_symmetry_multiplicity
 _atom_site_fract_x
 _atom_site_fract_y
 _atom_site_fract_z
 _atom_site_occupancy
  K  K0  1  0.25000000  0.75000000  0.50000000  1
  K  K1  1  0.75000000  0.25000000  0.50000000  1
  K  K2  1  0.41180956  0.71886285  0.13067242  1
  K  K3  1  0.71886285  0.58819044  0.30705329  1
  K  K4  1  0.28113715  0.41180956  0.69294671  1
  K  K5  1  0.58819044  0.28113715  0.86932758  1
  K  K6  1  0.77560451  0.09134141  0.86694692  1
  K  K7  1  0.09134141  0.22439549  0.31573691  1
  K  K8  1  0.90865859  0.77560451  0.68426309  1
  K  K9  1  0.22439549  0.90865859  0.13305308  1
  Te  Te10  1  0.15617264  0.65507745  0.81125009  1
  Te  Te11  1  0.65507745  0.84382736  0.49890481  1
  Te  Te12  1  0.34492255  0.15617264  0.50109519  1
  Te  Te13  1  0.84382736  0.34492255  0.18874991  1
  Te  Te14  1  0.22029508  0.22029508  -0.00000000  1
  Te  Te15  1  0.77970492  0.77970492  0.00000000  1
