# generated using pymatgen
data_KBi
_symmetry_space_group_name_H-M   'P 1'
_cell_length_a   7.30720651
_cell_length_b   13.60820702
_cell_length_c   14.43036021
_cell_angle_alpha   113.35072837
_cell_angle_beta   90.00000000
_cell_angle_gamma   90.00000000
_symmetry_Int_Tables_number   1
_chemical_formula_structural   KBi
_chemical_formula_sum   'K16 Bi16'
_cell_volume   1317.39942073
_cell_formula_units_Z   16
loop_
 _symmetry_equiv_pos_site_id
 _symmetry_equiv_pos_as_xyz
  1  'x, y, z'
loop_
 _atom_site_type_symbol
 _atom_site_label
 _atom_site_symmetry_multiplicity
 _atom_site_fract_x
 _atom_site_fract_y
 _atom_site_fract_z
 _atom_site_occupancy
  K  K0  1  0.13946513  0.55327048  0.84932748  1
  K  K1  1  0.63946513  0.94672952  0.15067252  1
  K  K2  1  0.86053487  0.44672952  0.15067252  1
  K  K3  1  0.36053487  0.05327048  0.84932748  1
  K  K4  1  0.42718040  0.69124448  0.65411357  1
  K  K5  1  0.92718040  0.80875552  0.34588643  1
  K  K6  1  0.57281960  0.30875552  0.34588643  1
  K  K7  1  0.07281960  0.19124448  0.65411357  1
  K  K8  1  0.19937431  0.53768480  0.39565760  1
  K  K9  1  0.69937431  0.96231520  0.60434240  1
  K  K10  1  0.80062569  0.46231520  0.60434240  1
  K  K11  1  0.30062569  0.03768480  0.39565760  1
  K  K12  1  0.38169697  0.64689607  0.12019765  1
  K  K13  1  0.88169697  0.85310393  0.87980235  1
  K  K14  1  0.61830303  0.35310393  0.87980235  1
  K  K15  1  0.11830303  0.14689607  0.12019765  1
  Bi  Bi16  1  0.20324973  0.88739596  0.57870934  1
  Bi  Bi17  1  0.70324973  0.61260404  0.42129066  1
  Bi  Bi18  1  0.79675027  0.11260404  0.42129066  1
  Bi  Bi19  1  0.29675027  0.38739496  0.57870934  1
  Bi  Bi20  1  0.43518203  0.77259657  0.39251152  1
  Bi  Bi21  1  0.93518203  0.72740343  0.60748848  1
  Bi  Bi22  1  0.56481797  0.22740343  0.60748848  1
  Bi  Bi23  1  0.06481797  0.27259657  0.39251152  1
  Bi  Bi24  1  0.12769162  0.87115039  0.11070862  1
  Bi  Bi25  1  0.62769162  0.62884961  0.88929138  1
  Bi  Bi26  1  0.87230838  0.12884961  0.88929138  1
  Bi  Bi27  1  0.37230838  0.37115039  0.11070862  1
  Bi  Bi28  1  0.87019124  0.68350709  0.07460851  1
  Bi  Bi29  1  0.37019124  0.81649291  0.92539149  1
  Bi  Bi30  1  0.12980876  0.31649291  0.92539149  1
  Bi  Bi31  1  0.62980876  0.18350709  0.07460851  1
