# generated using pymatgen
data_K3Bi
_symmetry_space_group_name_H-M   'P 1'
_cell_length_a   10.72134912
_cell_length_b   10.72134931
_cell_length_c   10.97527038
_cell_angle_alpha   90.00000000
_cell_angle_beta   90.00000000
_cell_angle_gamma   119.99999628
_symmetry_Int_Tables_number   1
_chemical_formula_structural   K3Bi
_chemical_formula_sum   'K18 Bi6'
_cell_volume   1092.55865051
_cell_formula_units_Z   6
loop_
 _symmetry_equiv_pos_site_id
 _symmetry_equiv_pos_as_xyz
  1  'x, y, z'
loop_
 _atom_site_type_symbol
 _atom_site_label
 _atom_site_symmetry_multiplicity
 _atom_site_fract_x
 _atom_site_fract_y
 _atom_site_fract_z
 _atom_site_occupancy
  K  K0  1  0.00000000  0.00000000  0.78474727  1
  K  K1  1  0.00000000  0.00000000  0.28474727  1
  K  K2  1  0.66666700  0.33333300  0.23079984  1
  K  K3  1  0.33333300  0.66666700  0.73079984  1
  K  K4  1  0.66666700  0.33333300  0.73079984  1
  K  K5  1  0.33333300  0.66666700  0.23079984  1
  K  K6  1  0.31092081  0.31092081  0.08254708  1
  K  K7  1  -0.00000000  0.31092081  0.58254708  1
  K  K8  1  0.31092081  -0.00000000  0.58254708  1
  K  K9  1  0.68907919  0.00000000  0.08254708  1
  K  K10  1  0.00000000  0.68907919  0.08254708  1
  K  K11  1  0.68907919  0.68907919  0.58254708  1
  K  K12  1  0.35372107  0.35372107  0.41819353  1
  K  K13  1  0.00000000  0.35372107  0.91819353  1
  K  K14  1  0.35372107  0.00000000  0.91819353  1
  K  K15  1  0.64627893  -0.00000000  0.41819353  1
  K  K16  1  -0.00000000  0.64627893  0.41819353  1
  K  K17  1  0.64627893  0.64627893  0.91819353  1
  Bi  Bi18  1  0.66824155  0.66824155  0.25047873  1
  Bi  Bi19  1  -0.00000000  0.66824155  0.75047873  1
  Bi  Bi20  1  0.66824155  -0.00000000  0.75047873  1
  Bi  Bi21  1  0.33175845  0.00000000  0.25047873  1
  Bi  Bi22  1  0.00000000  0.33175845  0.25047873  1
  Bi  Bi23  1  0.33175845  0.33175845  0.75047873  1
