# generated using pymatgen
data_KCo
_symmetry_space_group_name_H-M   'P 1'
_cell_length_a   3.69978200
_cell_length_b   5.71923800
_cell_length_c   6.44753673
_cell_angle_alpha   116.32876208
_cell_angle_beta   106.67331429
_cell_angle_gamma   90.00000000
_symmetry_Int_Tables_number   1
_chemical_formula_structural   KCo
_chemical_formula_sum   'K2 Co2'
_cell_volume   115.84211014
_cell_formula_units_Z   2
loop_
 _symmetry_equiv_pos_site_id
 _symmetry_equiv_pos_as_xyz
  1  'x, y, z'
loop_
 _atom_site_type_symbol
 _atom_site_label
 _atom_site_symmetry_multiplicity
 _atom_site_fract_x
 _atom_site_fract_y
 _atom_site_fract_z
 _atom_site_occupancy
  K  K0  1  0.09780600  0.34780600  0.69561200  1
  K  K1  1  0.90219400  0.65219400  0.30438800  1
  Co  Co2  1  0.69526500  0.94526500  0.89052900  1
  Co  Co3  1  0.30473500  0.05473500  0.10947100  1
