# generated using pymatgen
data_KGa3
_symmetry_space_group_name_H-M   'P 1'
_cell_length_a   6.23285871
_cell_length_b   6.23285833
_cell_length_c   8.57491528
_cell_angle_alpha   111.31133847
_cell_angle_beta   111.31133898
_cell_angle_gamma   90.00000013
_symmetry_Int_Tables_number   1
_chemical_formula_structural   KGa3
_chemical_formula_sum   'K3 Ga9'
_cell_volume   285.75435797
_cell_formula_units_Z   3
loop_
 _symmetry_equiv_pos_site_id
 _symmetry_equiv_pos_as_xyz
  1  'x, y, z'
loop_
 _atom_site_type_symbol
 _atom_site_label
 _atom_site_symmetry_multiplicity
 _atom_site_fract_x
 _atom_site_fract_y
 _atom_site_fract_z
 _atom_site_occupancy
  K  K0  1  0.12654546  0.62654546  0.25308892  1
  K  K1  1  0.37345454  0.87345454  0.74691108  1
  K  K2  1  -0.00000000  -0.00000000  -0.00000000  1
  Ga  Ga3  1  0.77816955  0.98387620  0.55633810  1
  Ga  Ga4  1  0.01612380  0.22183045  0.44366190  1
  Ga  Ga5  1  0.69826190  0.39220230  0.78440561  1
  Ga  Ga6  1  0.60779770  0.30173810  0.21559439  1
  Ga  Ga7  1  0.60779770  0.91385829  0.21559439  1
  Ga  Ga8  1  0.08614171  0.39220230  0.78440561  1
  Ga  Ga9  1  0.77816955  0.57246090  0.55633810  1
  Ga  Ga10  1  0.42753910  0.22183045  0.44366190  1
  Ga  Ga11  1  0.50000000  0.50000000  -0.00000000  1
