# generated using pymatgen
data_KAg2
_symmetry_space_group_name_H-M   'P 1'
_cell_length_a   5.83730147
_cell_length_b   5.83730211
_cell_length_c   9.79218007
_cell_angle_alpha   90.00000000
_cell_angle_beta   90.00000000
_cell_angle_gamma   120.00001243
_symmetry_Int_Tables_number   1
_chemical_formula_structural   KAg2
_chemical_formula_sum   'K4 Ag8'
_cell_volume   288.95769390
_cell_formula_units_Z   4
loop_
 _symmetry_equiv_pos_site_id
 _symmetry_equiv_pos_as_xyz
  1  'x, y, z'
loop_
 _atom_site_type_symbol
 _atom_site_label
 _atom_site_symmetry_multiplicity
 _atom_site_fract_x
 _atom_site_fract_y
 _atom_site_fract_z
 _atom_site_occupancy
  K  K0  1  0.33333300  0.66666700  0.06177482  1
  K  K1  1  0.66666700  0.33333300  0.56177482  1
  K  K2  1  0.66666700  0.33333300  0.93822518  1
  K  K3  1  0.33333300  0.66666700  0.43822518  1
  Ag  Ag4  1  -0.00000000  -0.00000000  -0.00000000  1
  Ag  Ag5  1  -0.00000000  -0.00000000  0.50000000  1
  Ag  Ag6  1  0.83430841  0.66861682  0.25000000  1
  Ag  Ag7  1  0.16569159  0.83430841  0.75000000  1
  Ag  Ag8  1  0.66861682  0.83430841  0.75000000  1
  Ag  Ag9  1  0.33138318  0.16569159  0.25000000  1
  Ag  Ag10  1  0.83430841  0.16569159  0.25000000  1
  Ag  Ag11  1  0.16569159  0.33138318  0.75000000  1
