# generated using pymatgen
data_K2Ga3
_symmetry_space_group_name_H-M   'P 1'
_cell_length_a   6.09307125
_cell_length_b   6.09307119
_cell_length_c   8.51475242
_cell_angle_alpha   110.96359062
_cell_angle_beta   110.96359171
_cell_angle_gamma   90.00186275
_symmetry_Int_Tables_number   1
_chemical_formula_structural   K2Ga3
_chemical_formula_sum   'K4 Ga6'
_cell_volume   272.66349932
_cell_formula_units_Z   2
loop_
 _symmetry_equiv_pos_site_id
 _symmetry_equiv_pos_as_xyz
  1  'x, y, z'
loop_
 _atom_site_type_symbol
 _atom_site_label
 _atom_site_symmetry_multiplicity
 _atom_site_fract_x
 _atom_site_fract_y
 _atom_site_fract_z
 _atom_site_occupancy
  K  K0  1  0.39056346  0.39056346  0.78116018  1
  K  K1  1  0.25000197  0.74999803  0.50000000  1
  K  K2  1  0.60943654  0.60943654  0.21883982  1
  K  K3  1  0.74999803  0.25000197  0.50000000  1
  Ga  Ga4  1  0.00000847  0.29443821  0.99997771  1
  Ga  Ga5  1  0.13861035  0.13861035  0.27714881  1
  Ga  Ga6  1  0.29443821  0.00000847  0.99997771  1
  Ga  Ga7  1  0.99999153  0.70556179  0.00002229  1
  Ga  Ga8  1  0.86138965  0.86138965  0.72285119  1
  Ga  Ga9  1  0.70556179  0.99999153  0.00002229  1
