# generated using pymatgen
data_K3Bi2
_symmetry_space_group_name_H-M   'P 1'
_cell_length_a   6.79730126
_cell_length_b   6.79730052
_cell_length_c   9.44876185
_cell_angle_alpha   79.00272560
_cell_angle_beta   79.00272679
_cell_angle_gamma   92.36965978
_symmetry_Int_Tables_number   1
_chemical_formula_structural   K3Bi2
_chemical_formula_sum   'K6 Bi4'
_cell_volume   419.30616999
_cell_formula_units_Z   2
loop_
 _symmetry_equiv_pos_site_id
 _symmetry_equiv_pos_as_xyz
  1  'x, y, z'
loop_
 _atom_site_type_symbol
 _atom_site_label
 _atom_site_symmetry_multiplicity
 _atom_site_fract_x
 _atom_site_fract_y
 _atom_site_fract_z
 _atom_site_occupancy
  K  K0  1  0.65552802  0.76057052  0.51620416  1
  K  K1  1  0.34447198  0.23942948  0.48379584  1
  K  K2  1  0.23942948  0.34447198  0.98379584  1
  K  K3  1  0.76057052  0.65552802  0.01620416  1
  K  K4  1  0.84374363  0.15625637  0.75000000  1
  K  K5  1  0.15625637  0.84374363  0.25000000  1
  Bi  Bi6  1  0.31955040  0.88623463  0.84505560  1
  Bi  Bi7  1  0.68044960  0.11376537  0.15494440  1
  Bi  Bi8  1  0.11376537  0.68044960  0.65494440  1
  Bi  Bi9  1  0.88623463  0.31955040  0.34505560  1
