# generated using pymatgen
data_KTe
_symmetry_space_group_name_H-M   'P 1'
_cell_length_a   9.54807020
_cell_length_b   9.54807013
_cell_length_c   6.57118305
_cell_angle_alpha   90.00000000
_cell_angle_beta   90.00000000
_cell_angle_gamma   119.99998987
_symmetry_Int_Tables_number   1
_chemical_formula_structural   KTe
_chemical_formula_sum   'K6 Te6'
_cell_volume   518.80654312
_cell_formula_units_Z   6
loop_
 _symmetry_equiv_pos_site_id
 _symmetry_equiv_pos_as_xyz
  1  'x, y, z'
loop_
 _atom_site_type_symbol
 _atom_site_label
 _atom_site_symmetry_multiplicity
 _atom_site_fract_x
 _atom_site_fract_y
 _atom_site_fract_z
 _atom_site_occupancy
  K  K0  1  0.65368053  -0.00000000  0.00000000  1
  K  K1  1  0.34631947  0.34631947  0.00000000  1
  K  K2  1  -0.00000000  0.65368053  0.00000000  1
  K  K3  1  0.31930217  -0.00000000  0.50000000  1
  K  K4  1  0.68069783  0.68069783  0.50000000  1
  K  K5  1  -0.00000000  0.31930217  0.50000000  1
  Te  Te6  1  -0.00000000  0.00000000  0.21308044  1
  Te  Te7  1  -0.00000000  0.00000000  0.78691956  1
  Te  Te8  1  0.33333300  0.66666700  0.28597058  1
  Te  Te9  1  0.33333300  0.66666700  0.71402942  1
  Te  Te10  1  0.66666700  0.33333300  0.71402942  1
  Te  Te11  1  0.66666700  0.33333300  0.28597058  1
