# generated using pymatgen
data_K7Hg31
_symmetry_space_group_name_H-M   'P 1'
_cell_length_a   11.09858356
_cell_length_b   11.09828224
_cell_length_c   10.41971886
_cell_angle_alpha   90.00000000
_cell_angle_beta   90.00000000
_cell_angle_gamma   120.00390292
_symmetry_Int_Tables_number   1
_chemical_formula_structural   K7Hg31
_chemical_formula_sum   'K7 Hg31'
_cell_volume   1111.45753061
_cell_formula_units_Z   1
loop_
 _symmetry_equiv_pos_site_id
 _symmetry_equiv_pos_as_xyz
  1  'x, y, z'
loop_
 _atom_site_type_symbol
 _atom_site_label
 _atom_site_symmetry_multiplicity
 _atom_site_fract_x
 _atom_site_fract_y
 _atom_site_fract_z
 _atom_site_occupancy
  K  K0  1  0.00007600  -0.00002385  0.00000000  1
  K  K1  1  0.33310695  0.66688308  0.00000000  1
  K  K2  1  0.16549267  0.33093660  0.50000000  1
  K  K3  1  0.66906508  0.83457291  0.50000000  1
  K  K4  1  0.16547372  0.83452190  0.50000000  1
  K  K5  1  0.66668089  0.33331486  0.79482351  1
  K  K6  1  0.66668089  0.33331486  0.20517649  1
  Hg  Hg7  1  0.39574250  0.33555462  0.00000000  1
  Hg  Hg8  1  0.66444659  0.06017123  0.00000000  1
  Hg  Hg9  1  0.93982101  0.60425823  0.00000000  1
  Hg  Hg10  1  0.93982658  0.33555037  0.00000000  1
  Hg  Hg11  1  0.66444325  0.60425243  0.00000000  1
  Hg  Hg12  1  0.39574043  0.06017383  0.00000000  1
  Hg  Hg13  1  0.17477286  0.34952592  0.82880177  1
  Hg  Hg14  1  0.65047050  0.82521929  0.82880093  1
  Hg  Hg15  1  0.17474438  0.82525104  0.82877327  1
  Hg  Hg16  1  0.17477286  0.34952592  0.17119823  1
  Hg  Hg17  1  0.65047050  0.82521929  0.17119907  1
  Hg  Hg18  1  0.17474438  0.82525104  0.17122673  1
  Hg  Hg19  1  0.85394227  0.70788099  0.73553710  1
  Hg  Hg20  1  0.29211479  0.14605316  0.73553620  1
  Hg  Hg21  1  0.85394940  0.14605412  0.73554090  1
  Hg  Hg22  1  0.49112336  0.98223289  0.68723621  1
  Hg  Hg23  1  0.49113118  0.50886703  0.68725104  1
  Hg  Hg24  1  0.01776430  0.50887002  0.68723775  1
  Hg  Hg25  1  0.49112336  0.98223289  0.31276379  1
  Hg  Hg26  1  0.01776430  0.50887002  0.31276225  1
  Hg  Hg27  1  0.49113118  0.50886703  0.31274896  1
  Hg  Hg28  1  0.85394227  0.70788099  0.26446290  1
  Hg  Hg29  1  0.85394940  0.14605412  0.26445910  1
  Hg  Hg30  1  0.29211479  0.14605316  0.26446380  1
  Hg  Hg31  1  0.00000196  -0.00000173  0.64044652  1
  Hg  Hg32  1  0.33334967  0.66664983  0.64594822  1
  Hg  Hg33  1  0.33334967  0.66664983  0.35405178  1
  Hg  Hg34  1  0.00000196  -0.00000173  0.35955348  1
  Hg  Hg35  1  0.76359124  0.52717101  0.50000000  1
  Hg  Hg36  1  0.47282583  0.23640423  0.50000000  1
  Hg  Hg37  1  0.76359202  0.23640261  0.50000000  1
