# generated using pymatgen
data_K4Ge23
_symmetry_space_group_name_H-M   'P 1'
_cell_length_a   10.86951103
_cell_length_b   10.86951103
_cell_length_c   10.86951103
_cell_angle_alpha   89.99999009
_cell_angle_beta   89.99999009
_cell_angle_gamma   89.99999009
_symmetry_Int_Tables_number   1
_chemical_formula_structural   K4Ge23
_chemical_formula_sum   'K8 Ge46'
_cell_volume   1284.19218526
_cell_formula_units_Z   2
loop_
 _symmetry_equiv_pos_site_id
 _symmetry_equiv_pos_as_xyz
  1  'x, y, z'
loop_
 _atom_site_type_symbol
 _atom_site_label
 _atom_site_symmetry_multiplicity
 _atom_site_fract_x
 _atom_site_fract_y
 _atom_site_fract_z
 _atom_site_occupancy
  K  K0  1  0.00000000  -0.00000000  -0.00000000  1
  K  K1  1  0.50000000  0.50000000  0.50000000  1
  K  K2  1  0.25000000  0.50000000  -0.00000000  1
  K  K3  1  0.75000000  0.50000000  -0.00000000  1
  K  K4  1  0.50000000  0.00000000  0.25000000  1
  K  K5  1  0.50000000  -0.00000000  0.75000000  1
  K  K6  1  0.00000000  0.75000000  0.50000000  1
  K  K7  1  0.00000000  0.25000000  0.50000000  1
  Ge  Ge8  1  0.25000000  0.00000000  0.50000000  1
  Ge  Ge9  1  0.75000000  -0.00000000  0.50000000  1
  Ge  Ge10  1  0.00000000  0.50000000  0.25000000  1
  Ge  Ge11  1  0.00000000  0.50000000  0.75000000  1
  Ge  Ge12  1  0.50000000  0.75000000  -0.00000000  1
  Ge  Ge13  1  0.50000000  0.25000000  -0.00000000  1
  Ge  Ge14  1  0.18469109  0.18469109  0.18469109  1
  Ge  Ge15  1  0.68469109  0.31530891  0.68469109  1
  Ge  Ge16  1  0.68469109  0.68469109  0.31530891  1
  Ge  Ge17  1  0.31530891  0.68469109  0.68469109  1
  Ge  Ge18  1  0.81530891  0.81530891  0.18469109  1
  Ge  Ge19  1  0.18469109  0.81530891  0.81530891  1
  Ge  Ge20  1  0.81530891  0.18469109  0.81530891  1
  Ge  Ge21  1  0.31530891  0.31530891  0.31530891  1
  Ge  Ge22  1  0.81530891  0.81530891  0.81530891  1
  Ge  Ge23  1  0.31530891  0.68469109  0.31530891  1
  Ge  Ge24  1  0.31530891  0.31530891  0.68469109  1
  Ge  Ge25  1  0.68469109  0.31530891  0.31530891  1
  Ge  Ge26  1  0.18469109  0.18469109  0.81530891  1
  Ge  Ge27  1  0.81530891  0.18469109  0.18469109  1
  Ge  Ge28  1  0.18469109  0.81530891  0.18469109  1
  Ge  Ge29  1  0.68469109  0.68469109  0.68469109  1
  Ge  Ge30  1  1.00000000  0.30634550  0.11904677  1
  Ge  Ge31  1  0.50000000  0.38095323  0.80634550  1
  Ge  Ge32  1  0.50000000  0.61904677  0.19365450  1
  Ge  Ge33  1  0.61904677  0.80634550  0.50000000  1
  Ge  Ge34  1  0.38095323  0.80634550  0.50000000  1
  Ge  Ge35  1  0.19365450  0.50000000  0.61904677  1
  Ge  Ge36  1  0.80634550  0.50000000  0.61904677  1
  Ge  Ge37  1  0.11904677  1.00000000  0.30634550  1
  Ge  Ge38  1  0.30634550  0.11904677  1.00000000  1
  Ge  Ge39  1  0.69365450  0.88095323  0.00000000  1
  Ge  Ge40  1  0.11904677  0.00000000  0.69365450  1
  Ge  Ge41  1  0.69365450  0.11904677  0.00000000  1
  Ge  Ge42  1  0.88095323  1.00000000  0.30634550  1
  Ge  Ge43  1  0.88095323  0.00000000  0.69365450  1
  Ge  Ge44  1  0.30634550  0.88095323  1.00000000  1
  Ge  Ge45  1  0.00000000  0.69365450  0.88095323  1
  Ge  Ge46  1  1.00000000  0.30634550  0.88095323  1
  Ge  Ge47  1  0.00000000  0.69365450  0.11904677  1
  Ge  Ge48  1  0.80634550  0.50000000  0.38095323  1
  Ge  Ge49  1  0.19365450  0.50000000  0.38095323  1
  Ge  Ge50  1  0.61904677  0.19365450  0.50000000  1
  Ge  Ge51  1  0.38095323  0.19365450  0.50000000  1
  Ge  Ge52  1  0.50000000  0.61904677  0.80634550  1
  Ge  Ge53  1  0.50000000  0.38095323  0.19365450  1
