# generated using pymatgen
data_LaC2
_symmetry_space_group_name_H-M   'P 1'
_cell_length_a   3.95039945
_cell_length_b   3.95039845
_cell_length_c   4.31205131
_cell_angle_alpha   117.26231474
_cell_angle_beta   117.26231692
_cell_angle_gamma   89.99998024
_symmetry_Int_Tables_number   1
_chemical_formula_structural   LaC2
_chemical_formula_sum   'La1 C2'
_cell_volume   51.26393896
_cell_formula_units_Z   1
loop_
 _symmetry_equiv_pos_site_id
 _symmetry_equiv_pos_as_xyz
  1  'x, y, z'
loop_
 _atom_site_type_symbol
 _atom_site_label
 _atom_site_symmetry_multiplicity
 _atom_site_fract_x
 _atom_site_fract_y
 _atom_site_fract_z
 _atom_site_occupancy
  La  La0  1  0.00000000  0.00000000  0.00000000  1
  C  C1  1  0.40186145  0.40186145  0.80372289  1
  C  C2  1  0.59813855  0.59813855  0.19627711  1
