# generated using pymatgen
data_LaCd3
_symmetry_space_group_name_H-M   'P 1'
_cell_length_a   5.21463976
_cell_length_b   5.21439886
_cell_length_c   5.21437975
_cell_angle_alpha   59.99733227
_cell_angle_beta   60.00161384
_cell_angle_gamma   60.00146474
_symmetry_Int_Tables_number   1
_chemical_formula_structural   LaCd3
_chemical_formula_sum   'La1 Cd3'
_cell_volume   100.25766030
_cell_formula_units_Z   1
loop_
 _symmetry_equiv_pos_site_id
 _symmetry_equiv_pos_as_xyz
  1  'x, y, z'
loop_
 _atom_site_type_symbol
 _atom_site_label
 _atom_site_symmetry_multiplicity
 _atom_site_fract_x
 _atom_site_fract_y
 _atom_site_fract_z
 _atom_site_occupancy
  La  La0  1  0.75000000  0.75000000  0.75000000  1
  Cd  Cd1  1  0.00006945  0.99996617  0.99996617  1
  Cd  Cd2  1  0.49992755  0.50003283  0.50003283  1
  Cd  Cd3  1  0.24999900  0.25000000  0.25000000  1
