# generated using pymatgen
data_LaMg15
_symmetry_space_group_name_H-M   'P 1'
_cell_length_a   6.59417519
_cell_length_b   6.59417519
_cell_length_c   10.35972200
_cell_angle_alpha   90.00000000
_cell_angle_beta   90.00000000
_cell_angle_gamma   119.99999189
_symmetry_Int_Tables_number   1
_chemical_formula_structural   LaMg15
_chemical_formula_sum   'La1 Mg15'
_cell_volume   390.12136122
_cell_formula_units_Z   1
loop_
 _symmetry_equiv_pos_site_id
 _symmetry_equiv_pos_as_xyz
  1  'x, y, z'
loop_
 _atom_site_type_symbol
 _atom_site_label
 _atom_site_symmetry_multiplicity
 _atom_site_fract_x
 _atom_site_fract_y
 _atom_site_fract_z
 _atom_site_occupancy
  La  La0  1  0.00000000  0.00000000  0.50000000  1
  Mg  Mg1  1  0.00000000  0.00000000  0.00000000  1
  Mg  Mg2  1  0.01094800  0.50547400  0.50000000  1
  Mg  Mg3  1  0.99809900  0.49905000  0.00000000  1
  Mg  Mg4  1  0.49452600  0.50547400  0.50000000  1
  Mg  Mg5  1  0.50095000  0.49905000  0.00000000  1
  Mg  Mg6  1  0.49452600  0.98905200  0.50000000  1
  Mg  Mg7  1  0.50095000  0.00190100  0.00000000  1
  Mg  Mg8  1  0.16824500  0.33649000  0.24403900  1
  Mg  Mg9  1  0.16824500  0.33649000  0.75596100  1
  Mg  Mg10  1  0.16824500  0.83175500  0.24403900  1
  Mg  Mg11  1  0.16824500  0.83175500  0.75596100  1
  Mg  Mg12  1  0.66351000  0.83175500  0.24403900  1
  Mg  Mg13  1  0.66351000  0.83175500  0.75596100  1
  Mg  Mg14  1  0.66666700  0.33333300  0.25497000  1
  Mg  Mg15  1  0.66666700  0.33333300  0.74503000  1
