# generated using pymatgen
data_La5Sb3
_symmetry_space_group_name_H-M   'P 1'
_cell_length_a   6.67453722
_cell_length_b   9.58851073
_cell_length_c   9.58836306
_cell_angle_alpha   120.00112842
_cell_angle_beta   90.00014215
_cell_angle_gamma   89.99978023
_symmetry_Int_Tables_number   1
_chemical_formula_structural   La5Sb3
_chemical_formula_sum   'La10 Sb6'
_cell_volume   531.42561140
_cell_formula_units_Z   2
loop_
 _symmetry_equiv_pos_site_id
 _symmetry_equiv_pos_as_xyz
  1  'x, y, z'
loop_
 _atom_site_type_symbol
 _atom_site_label
 _atom_site_symmetry_multiplicity
 _atom_site_fract_x
 _atom_site_fract_y
 _atom_site_fract_z
 _atom_site_occupancy
  La  La0  1  0.50000764  0.33333190  0.66666352  1
  La  La1  1  0.50001639  0.66666779  0.33333693  1
  La  La2  1  -0.00000875  0.66666795  0.33333664  1
  La  La3  1  0.00000380  0.33333443  0.66666676  1
  La  La4  1  0.74999340  0.25478023  0.00000326  1
  La  La5  1  0.74999277  0.74510004  0.74511881  1
  La  La6  1  0.74998917  0.99998528  0.25485083  1
  La  La7  1  0.25000285  0.74521469  0.00000264  1
  La  La8  1  0.25000809  0.25489855  0.25488384  1
  La  La9  1  0.25000719  0.00001729  0.74510818  1
  Sb  Sb10  1  0.74998436  0.61749564  0.00001660  1
  Sb  Sb11  1  0.74998700  0.38251342  0.38251058  1
  Sb  Sb12  1  0.74999182  0.00000025  0.61748991  1
  Sb  Sb13  1  0.25001593  0.38251894  0.00001997  1
  Sb  Sb14  1  0.25000301  0.61749583  0.61750020  1
  Sb  Sb15  1  0.25000533  -0.00002222  0.38249136  1
