# generated using pymatgen
data_La7Pt3
_symmetry_space_group_name_H-M   'P 1'
_cell_length_a   6.62204700
_cell_length_b   10.34276808
_cell_length_c   10.34274962
_cell_angle_alpha   120.00112067
_cell_angle_beta   90.00000000
_cell_angle_gamma   90.00000000
_symmetry_Int_Tables_number   1
_chemical_formula_structural   La7Pt3
_chemical_formula_sum   'La14 Pt6'
_cell_volume   613.46640338
_cell_formula_units_Z   2
loop_
 _symmetry_equiv_pos_site_id
 _symmetry_equiv_pos_as_xyz
  1  'x, y, z'
loop_
 _atom_site_type_symbol
 _atom_site_label
 _atom_site_symmetry_multiplicity
 _atom_site_fract_x
 _atom_site_fract_y
 _atom_site_fract_z
 _atom_site_occupancy
  La  La0  1  0.46484443  0.33326017  0.66672245  1
  La  La1  1  0.96484443  0.66673983  0.33327755  1
  La  La2  1  0.24473024  0.12650682  0.87348034  1
  La  La3  1  0.24470652  0.74704202  0.87359809  1
  La  La4  1  0.24470725  0.12640150  0.25296589  1
  La  La5  1  0.74473024  0.87349318  0.12651966  1
  La  La6  1  0.74470652  0.25295798  0.12640191  1
  La  La7  1  0.74470725  0.87359850  0.74703411  1
  La  La8  1  0.43594851  0.53634466  0.46365735  1
  La  La9  1  0.43591309  0.92737505  0.46366164  1
  La  La10  1  0.43591167  0.53634427  0.07263227  1
  La  La11  1  0.93594851  0.46365534  0.53634265  1
  La  La12  1  0.93591309  0.07262495  0.53633836  1
  La  La13  1  0.93591167  0.46365573  0.92736773  1
  Pt  Pt14  1  0.19541323  0.81156111  0.18845498  1
  Pt  Pt15  1  0.19541448  0.37686540  0.18837668  1
  Pt  Pt16  1  0.19541060  0.81162664  0.62313209  1
  Pt  Pt17  1  0.69541323  0.18843889  0.81154502  1
  Pt  Pt18  1  0.69541448  0.62313460  0.81162332  1
  Pt  Pt19  1  0.69541060  0.18837336  0.37686791  1
