# generated using pymatgen
data_LaNi
_symmetry_space_group_name_H-M   'P 1'
_cell_length_a   3.80996288
_cell_length_b   4.36346257
_cell_length_c   5.77535562
_cell_angle_alpha   90.00000000
_cell_angle_beta   109.25944878
_cell_angle_gamma   90.00000000
_symmetry_Int_Tables_number   1
_chemical_formula_structural   LaNi
_chemical_formula_sum   'La2 Ni2'
_cell_volume   90.63974184
_cell_formula_units_Z   2
loop_
 _symmetry_equiv_pos_site_id
 _symmetry_equiv_pos_as_xyz
  1  'x, y, z'
loop_
 _atom_site_type_symbol
 _atom_site_label
 _atom_site_symmetry_multiplicity
 _atom_site_fract_x
 _atom_site_fract_y
 _atom_site_fract_z
 _atom_site_occupancy
  La  La0  1  0.86654322  0.75000000  0.73308743  1
  La  La1  1  0.13345678  0.25000000  0.26691257  1
  Ni  Ni2  1  0.57280368  0.75000000  0.14560735  1
  Ni  Ni3  1  0.42719632  0.25000000  0.85439265  1
