# generated using pymatgen
data_LaTb3
_symmetry_space_group_name_H-M   'P 1'
_cell_length_a   7.37384291
_cell_length_b   7.37383625
_cell_length_c   5.89543062
_cell_angle_alpha   90.00000000
_cell_angle_beta   90.00000000
_cell_angle_gamma   120.00003959
_symmetry_Int_Tables_number   1
_chemical_formula_structural   LaTb3
_chemical_formula_sum   'La2 Tb6'
_cell_volume   277.60888470
_cell_formula_units_Z   2
loop_
 _symmetry_equiv_pos_site_id
 _symmetry_equiv_pos_as_xyz
  1  'x, y, z'
loop_
 _atom_site_type_symbol
 _atom_site_label
 _atom_site_symmetry_multiplicity
 _atom_site_fract_x
 _atom_site_fract_y
 _atom_site_fract_z
 _atom_site_occupancy
  La  La0  1  0.66666700  0.33333300  0.25000000  1
  La  La1  1  0.33333400  0.66666800  0.75000200  1
  Tb  Tb2  1  0.83768377  0.16231823  0.75000200  1
  Tb  Tb3  1  0.32463346  0.16231823  0.75000200  1
  Tb  Tb4  1  0.83768377  0.67536754  0.75000200  1
  Tb  Tb5  1  0.16231623  0.83768177  0.25000000  1
  Tb  Tb6  1  0.67536554  0.83768177  0.25000000  1
  Tb  Tb7  1  0.16231623  0.32463246  0.25000000  1
