# generated using pymatgen
data_LaBe13
_symmetry_space_group_name_H-M   'P 1'
_cell_length_a   7.35919318
_cell_length_b   7.35919318
_cell_length_c   7.35919318
_cell_angle_alpha   60.00000000
_cell_angle_beta   60.00000000
_cell_angle_gamma   60.00000000
_symmetry_Int_Tables_number   1
_chemical_formula_structural   LaBe13
_chemical_formula_sum   'La2 Be26'
_cell_volume   281.82246674
_cell_formula_units_Z   2
loop_
 _symmetry_equiv_pos_site_id
 _symmetry_equiv_pos_as_xyz
  1  'x, y, z'
loop_
 _atom_site_type_symbol
 _atom_site_label
 _atom_site_symmetry_multiplicity
 _atom_site_fract_x
 _atom_site_fract_y
 _atom_site_fract_z
 _atom_site_occupancy
  La  La0  1  0.75000000  0.75000000  0.75000000  1
  La  La1  1  0.25000000  0.25000000  0.25000000  1
  Be  Be2  1  0.50000000  0.50000000  0.50000000  1
  Be  Be3  1  -0.00000000  0.00000000  -0.00000000  1
  Be  Be4  1  0.78742470  0.43702968  0.21257530  1
  Be  Be5  1  0.21257530  0.56297032  0.78742470  1
  Be  Be6  1  0.56297032  0.21257530  0.43702968  1
  Be  Be7  1  0.43702968  0.78742470  0.56297032  1
  Be  Be8  1  0.28742470  0.06297032  0.71257530  1
  Be  Be9  1  0.71257530  0.93702968  0.28742470  1
  Be  Be10  1  0.93702968  0.71257530  0.06297032  1
  Be  Be11  1  0.06297032  0.28742470  0.93702968  1
  Be  Be12  1  0.43702968  0.21257530  0.78742470  1
  Be  Be13  1  0.56297032  0.78742470  0.21257530  1
  Be  Be14  1  0.21257530  0.43702968  0.56297032  1
  Be  Be15  1  0.78742470  0.56297032  0.43702968  1
  Be  Be16  1  0.06297032  0.71257530  0.28742470  1
  Be  Be17  1  0.93702968  0.28742470  0.71257530  1
  Be  Be18  1  0.71257530  0.06297032  0.93702968  1
  Be  Be19  1  0.28742470  0.93702968  0.06297032  1
  Be  Be20  1  0.21257530  0.78742470  0.43702968  1
  Be  Be21  1  0.78742470  0.21257530  0.56297032  1
  Be  Be22  1  0.43702968  0.56297032  0.21257530  1
  Be  Be23  1  0.56297032  0.43702968  0.78742470  1
  Be  Be24  1  0.71257530  0.28742470  0.06297032  1
  Be  Be25  1  0.28742470  0.71257530  0.93702968  1
  Be  Be26  1  0.06297032  0.93702968  0.71257530  1
  Be  Be27  1  0.93702968  0.06297032  0.28742470  1
