# generated using pymatgen
data_LaAu
_symmetry_space_group_name_H-M   'P 1'
_cell_length_a   3.99341301
_cell_length_b   4.79489738
_cell_length_c   6.11166822
_cell_angle_alpha   90.00000000
_cell_angle_beta   70.93117683
_cell_angle_gamma   90.00000000
_symmetry_Int_Tables_number   1
_chemical_formula_structural   LaAu
_chemical_formula_sum   'La2 Au2'
_cell_volume   110.60465469
_cell_formula_units_Z   2
loop_
 _symmetry_equiv_pos_site_id
 _symmetry_equiv_pos_as_xyz
  1  'x, y, z'
loop_
 _atom_site_type_symbol
 _atom_site_label
 _atom_site_symmetry_multiplicity
 _atom_site_fract_x
 _atom_site_fract_y
 _atom_site_fract_z
 _atom_site_occupancy
  La  La0  1  0.13495370  0.75000000  0.73009361  1
  La  La1  1  0.86504630  0.25000000  0.26990639  1
  Au  Au2  1  0.41265888  0.75000000  0.17468324  1
  Au  Au3  1  0.58734112  0.25000000  0.82531676  1
