# generated using pymatgen
data_LaSm3
_symmetry_space_group_name_H-M   'P 1'
_cell_length_a   7.48506840
_cell_length_b   7.48506993
_cell_length_c   5.83987788
_cell_angle_alpha   90.00000000
_cell_angle_beta   90.00000000
_cell_angle_gamma   120.00000662
_symmetry_Int_Tables_number   1
_chemical_formula_structural   LaSm3
_chemical_formula_sum   'La2 Sm6'
_cell_volume   283.35181846
_cell_formula_units_Z   2
loop_
 _symmetry_equiv_pos_site_id
 _symmetry_equiv_pos_as_xyz
  1  'x, y, z'
loop_
 _atom_site_type_symbol
 _atom_site_label
 _atom_site_symmetry_multiplicity
 _atom_site_fract_x
 _atom_site_fract_y
 _atom_site_fract_z
 _atom_site_occupancy
  La  La0  1  0.33333300  0.66666700  0.75000000  1
  La  La1  1  0.66666700  0.33333300  0.25000000  1
  Sm  Sm2  1  0.83428825  0.16571175  0.75000000  1
  Sm  Sm3  1  0.33142450  0.16571175  0.75000000  1
  Sm  Sm4  1  0.83428825  0.66857550  0.75000000  1
  Sm  Sm5  1  0.16571175  0.83428825  0.25000000  1
  Sm  Sm6  1  0.16571175  0.33142450  0.25000000  1
  Sm  Sm7  1  0.66857550  0.83428825  0.25000000  1
