# generated using pymatgen
data_LaZn3
_symmetry_space_group_name_H-M   'P 1'
_cell_length_a   6.74174340
_cell_length_b   6.74174340
_cell_length_c   4.30129748
_cell_angle_alpha   90.00000000
_cell_angle_beta   90.00000000
_cell_angle_gamma   119.99998941
_symmetry_Int_Tables_number   1
_chemical_formula_structural   LaZn3
_chemical_formula_sum   'La2 Zn6'
_cell_volume   169.30687554
_cell_formula_units_Z   2
loop_
 _symmetry_equiv_pos_site_id
 _symmetry_equiv_pos_as_xyz
  1  'x, y, z'
loop_
 _atom_site_type_symbol
 _atom_site_label
 _atom_site_symmetry_multiplicity
 _atom_site_fract_x
 _atom_site_fract_y
 _atom_site_fract_z
 _atom_site_occupancy
  La  La0  1  0.33333300  0.66666700  0.75000000  1
  La  La1  1  0.66666700  0.33333300  0.25000000  1
  Zn  Zn2  1  0.86594037  0.73188074  0.75000000  1
  Zn  Zn3  1  0.26811926  0.13405963  0.75000000  1
  Zn  Zn4  1  0.86594037  0.13405963  0.75000000  1
  Zn  Zn5  1  0.13405963  0.26811926  0.25000000  1
  Zn  Zn6  1  0.73188074  0.86594037  0.25000000  1
  Zn  Zn7  1  0.13405963  0.86594037  0.25000000  1
