# generated using pymatgen
data_LaPm3
_symmetry_space_group_name_H-M   'P 1'
_cell_length_a   7.52263818
_cell_length_b   7.52263328
_cell_length_c   5.87265813
_cell_angle_alpha   90.00000000
_cell_angle_beta   90.00000000
_cell_angle_gamma   119.99997506
_symmetry_Int_Tables_number   1
_chemical_formula_structural   LaPm3
_chemical_formula_sum   'La2 Pm6'
_cell_volume   287.80976544
_cell_formula_units_Z   2
loop_
 _symmetry_equiv_pos_site_id
 _symmetry_equiv_pos_as_xyz
  1  'x, y, z'
loop_
 _atom_site_type_symbol
 _atom_site_label
 _atom_site_symmetry_multiplicity
 _atom_site_fract_x
 _atom_site_fract_y
 _atom_site_fract_z
 _atom_site_occupancy
  La  La0  1  0.66666800  0.33333300  0.25000100  1
  La  La1  1  0.33333400  0.66666800  0.75000000  1
  Pm  Pm2  1  0.83391649  0.16608251  0.75000000  1
  Pm  Pm3  1  0.33216603  0.16608251  0.75000000  1
  Pm  Pm4  1  0.83391849  0.66783397  0.75000000  1
  Pm  Pm5  1  0.16608251  0.83391649  0.25000100  1
  Pm  Pm6  1  0.66783297  0.83391649  0.25000100  1
  Pm  Pm7  1  0.16608251  0.33216603  0.25000100  1
