# generated using pymatgen
data_La5Pb4
_symmetry_space_group_name_H-M   'P 1'
_cell_length_a   8.59578845
_cell_length_b   8.70334981
_cell_length_c   16.36229120
_cell_angle_alpha   90.00000000
_cell_angle_beta   90.00000000
_cell_angle_gamma   90.00000000
_symmetry_Int_Tables_number   1
_chemical_formula_structural   La5Pb4
_chemical_formula_sum   'La20 Pb16'
_cell_volume   1224.09824533
_cell_formula_units_Z   4
loop_
 _symmetry_equiv_pos_site_id
 _symmetry_equiv_pos_as_xyz
  1  'x, y, z'
loop_
 _atom_site_type_symbol
 _atom_site_label
 _atom_site_symmetry_multiplicity
 _atom_site_fract_x
 _atom_site_fract_y
 _atom_site_fract_z
 _atom_site_occupancy
  La  La0  1  0.88355720  0.65841816  0.88400147  1
  La  La1  1  0.38355720  0.84158184  0.61599853  1
  La  La2  1  0.61644280  0.15841816  0.11599853  1
  La  La3  1  0.11644280  0.34158184  0.38400147  1
  La  La4  1  0.11644280  0.34158184  0.11599853  1
  La  La5  1  0.61644280  0.15841816  0.38400147  1
  La  La6  1  0.38355720  0.84158184  0.88400147  1
  La  La7  1  0.88355720  0.65841816  0.61599853  1
  La  La8  1  0.03394261  0.17723538  0.89739293  1
  La  La9  1  0.53394261  0.32276462  0.60260707  1
  La  La10  1  0.46605739  0.67723538  0.10260707  1
  La  La11  1  0.96605739  0.82276462  0.39739293  1
  La  La12  1  0.96605739  0.82276462  0.10260707  1
  La  La13  1  0.46605739  0.67723538  0.39739293  1
  La  La14  1  0.53394261  0.32276462  0.89739293  1
  La  La15  1  0.03394261  0.17723538  0.60260707  1
  La  La16  1  0.71429164  0.99618487  0.75000000  1
  La  La17  1  0.21429164  0.50381513  0.75000000  1
  La  La18  1  0.78570836  0.49618487  0.25000000  1
  La  La19  1  0.28570836  0.00381513  0.25000000  1
  Pb  Pb20  1  0.08225890  0.87912041  0.75000000  1
  Pb  Pb21  1  0.58225890  0.62087959  0.75000000  1
  Pb  Pb22  1  0.41774110  0.37912041  0.25000000  1
  Pb  Pb23  1  0.91774110  0.12087959  0.25000000  1
  Pb  Pb24  1  0.83924504  0.35736935  0.75000000  1
  Pb  Pb25  1  0.33924504  0.14263065  0.75000000  1
  Pb  Pb26  1  0.66075496  0.85736935  0.25000000  1
  Pb  Pb27  1  0.16075496  0.64263065  0.25000000  1
  Pb  Pb28  1  0.77439161  0.47017354  0.04481762  1
  Pb  Pb29  1  0.27439161  0.02982646  0.45518238  1
  Pb  Pb30  1  0.72560839  0.97017354  0.95518238  1
  Pb  Pb31  1  0.22560839  0.52982646  0.54481762  1
  Pb  Pb32  1  0.22560839  0.52982646  0.95518238  1
  Pb  Pb33  1  0.72560839  0.97017354  0.54481762  1
  Pb  Pb34  1  0.27439161  0.02982646  0.04481762  1
  Pb  Pb35  1  0.77439161  0.47017354  0.45518238  1
