# generated using pymatgen
data_La5Ga3
_symmetry_space_group_name_H-M   'P 1'
_cell_length_a   8.05441431
_cell_length_b   8.05407199
_cell_length_c   14.81515428
_cell_angle_alpha   90.00000000
_cell_angle_beta   90.00000000
_cell_angle_gamma   89.99904847
_symmetry_Int_Tables_number   1
_chemical_formula_structural   La5Ga3
_chemical_formula_sum   'La20 Ga12'
_cell_volume   961.07139451
_cell_formula_units_Z   4
loop_
 _symmetry_equiv_pos_site_id
 _symmetry_equiv_pos_as_xyz
  1  'x, y, z'
loop_
 _atom_site_type_symbol
 _atom_site_label
 _atom_site_symmetry_multiplicity
 _atom_site_fract_x
 _atom_site_fract_y
 _atom_site_fract_z
 _atom_site_occupancy
  La  La0  1  0.25000000  0.25000000  0.78654015  1
  La  La1  1  0.08890103  0.56347263  0.10326192  1
  La  La2  1  0.58890103  0.06347263  0.89673808  1
  La  La3  1  0.75000000  0.75000000  0.21345985  1
  La  La4  1  0.58885590  0.43659007  0.39685649  1
  La  La5  1  0.91109897  0.43652737  0.89673808  1
  La  La6  1  0.41109897  0.93652737  0.10326192  1
  La  La7  1  0.75000000  0.75000000  0.71342990  1
  La  La8  1  0.56341619  0.08885279  0.60313787  1
  La  La9  1  0.06341619  0.58885279  0.39686213  1
  La  La10  1  0.93652843  0.08891546  0.10325018  1
  La  La11  1  0.93658381  0.41114721  0.60313787  1
  La  La12  1  0.56347157  0.41108454  0.10325018  1
  La  La13  1  0.08885590  0.93659007  0.60314351  1
  La  La14  1  0.25000000  0.25000000  0.28657010  1
  La  La15  1  0.43652843  0.58891546  0.89674982  1
  La  La16  1  0.41114410  0.56340993  0.60314351  1
  La  La17  1  0.06347157  0.91108454  0.89674982  1
  La  La18  1  0.91114410  0.06340993  0.39685649  1
  La  La19  1  0.43658381  0.91114721  0.39686213  1
  Ga  Ga20  1  0.36617121  0.63386414  0.25014196  1
  Ga  Ga21  1  0.63382879  0.36613586  0.74985804  1
  Ga  Ga22  1  0.25000000  0.25000000  0.49621686  1
  Ga  Ga23  1  0.63387218  0.13384105  0.25013957  1
  Ga  Ga24  1  0.75000000  0.75000000  0.00375894  1
  Ga  Ga25  1  0.86617121  0.13386414  0.74985804  1
  Ga  Ga26  1  0.13387218  0.63384105  0.74986043  1
  Ga  Ga27  1  0.86612782  0.36615895  0.25013957  1
  Ga  Ga28  1  0.13382879  0.86613586  0.25014196  1
  Ga  Ga29  1  0.36612782  0.86615895  0.74986043  1
  Ga  Ga30  1  0.25000000  0.25000000  0.99624106  1
  Ga  Ga31  1  0.75000000  0.75000000  0.50378314  1
