# generated using pymatgen
data_La5Ir3
_symmetry_space_group_name_H-M   'P 1'
_cell_length_a   6.63062462
_cell_length_b   11.43455450
_cell_length_c   11.43455450
_cell_angle_alpha   90.00000000
_cell_angle_beta   90.00000000
_cell_angle_gamma   90.00000000
_symmetry_Int_Tables_number   1
_chemical_formula_structural   La5Ir3
_chemical_formula_sum   'La20 Ir12'
_cell_volume   866.94778121
_cell_formula_units_Z   4
loop_
 _symmetry_equiv_pos_site_id
 _symmetry_equiv_pos_as_xyz
  1  'x, y, z'
loop_
 _atom_site_type_symbol
 _atom_site_label
 _atom_site_symmetry_multiplicity
 _atom_site_fract_x
 _atom_site_fract_y
 _atom_site_fract_z
 _atom_site_occupancy
  La  La0  1  0.39870999  0.84296494  0.54328974  1
  La  La1  1  0.89870999  0.65703306  0.54328974  1
  La  La2  1  0.89870999  0.84296694  0.95671026  1
  La  La3  1  0.39870999  0.65703506  0.95671026  1
  La  La4  1  0.89870999  0.54328974  0.84296694  1
  La  La5  1  0.39870999  0.95671026  0.84296494  1
  La  La6  1  0.39870999  0.54328974  0.65703506  1
  La  La7  1  0.89870999  0.95671026  0.65703306  1
  La  La8  1  0.60129001  0.15703506  0.45671026  1
  La  La9  1  0.10129101  0.34296694  0.45671026  1
  La  La10  1  0.10129101  0.15703306  0.04328974  1
  La  La11  1  0.60129001  0.34296494  0.04328974  1
  La  La12  1  0.10129101  0.45671026  0.15703306  1
  La  La13  1  0.60129001  0.04328974  0.15703506  1
  La  La14  1  0.60129001  0.45671026  0.34296494  1
  La  La15  1  0.10129101  0.04328974  0.34296694  1
  La  La16  1  0.50000000  0.75000000  0.25000000  1
  La  La17  1  -0.00000000  0.75000000  0.25000000  1
  La  La18  1  -0.00000000  0.25000000  0.75000000  1
  La  La19  1  0.50000000  0.25000000  0.75000000  1
  Ir  Ir20  1  0.25000000  0.90363932  0.09636068  1
  Ir  Ir21  1  0.75000000  0.59636068  0.09636068  1
  Ir  Ir22  1  0.75000000  0.90363932  0.40363932  1
  Ir  Ir23  1  0.25000000  0.59636068  0.40363932  1
  Ir  Ir24  1  0.75000000  0.09636068  0.90363932  1
  Ir  Ir25  1  0.25000000  0.40363932  0.90363932  1
  Ir  Ir26  1  0.25000000  0.09636068  0.59636068  1
  Ir  Ir27  1  0.75000000  0.40363932  0.59636068  1
  Ir  Ir28  1  0.13304179  0.75000000  0.75000000  1
  Ir  Ir29  1  0.63304179  0.75000000  0.75000000  1
  Ir  Ir30  1  0.86695821  0.25000000  0.25000000  1
  Ir  Ir31  1  0.36695821  0.25000000  0.25000000  1
