# generated using pymatgen
data_La5Sn4
_symmetry_space_group_name_H-M   'P 1'
_cell_length_a   8.55883866
_cell_length_b   8.65572372
_cell_length_c   16.33096697
_cell_angle_alpha   90.00000000
_cell_angle_beta   90.00000000
_cell_angle_gamma   90.00000000
_symmetry_Int_Tables_number   1
_chemical_formula_structural   La5Sn4
_chemical_formula_sum   'La20 Sn16'
_cell_volume   1209.84609199
_cell_formula_units_Z   4
loop_
 _symmetry_equiv_pos_site_id
 _symmetry_equiv_pos_as_xyz
  1  'x, y, z'
loop_
 _atom_site_type_symbol
 _atom_site_label
 _atom_site_symmetry_multiplicity
 _atom_site_fract_x
 _atom_site_fract_y
 _atom_site_fract_z
 _atom_site_occupancy
  La  La0  1  0.97295090  0.82024365  0.89895708  1
  La  La1  1  0.47295090  0.67975635  0.60104292  1
  La  La2  1  0.52704910  0.32024365  0.10104292  1
  La  La3  1  0.02704910  0.17975635  0.39895708  1
  La  La4  1  0.97295090  0.82024365  0.60104292  1
  La  La5  1  0.47295090  0.67975635  0.89895708  1
  La  La6  1  0.52704910  0.32024365  0.39895708  1
  La  La7  1  0.02704910  0.17975635  0.10104292  1
  La  La8  1  0.88086094  0.66131585  0.38302538  1
  La  La9  1  0.38086094  0.83868415  0.11697462  1
  La  La10  1  0.61913906  0.16131585  0.61697462  1
  La  La11  1  0.11913906  0.33868415  0.88302538  1
  La  La12  1  0.11913906  0.33868415  0.61697462  1
  La  La13  1  0.61913906  0.16131585  0.88302538  1
  La  La14  1  0.38086094  0.83868415  0.38302538  1
  La  La15  1  0.88086094  0.66131585  0.11697462  1
  La  La16  1  0.29062951  0.00353101  0.75000000  1
  La  La17  1  0.79062951  0.49646899  0.75000000  1
  La  La18  1  0.20937049  0.50353101  0.25000000  1
  La  La19  1  0.70937049  0.99646899  0.25000000  1
  Sn  Sn20  1  0.77885428  0.46842068  0.54408134  1
  Sn  Sn21  1  0.27885428  0.03157932  0.95591866  1
  Sn  Sn22  1  0.72114572  0.96842068  0.45591866  1
  Sn  Sn23  1  0.22114572  0.53157932  0.04408134  1
  Sn  Sn24  1  0.22114572  0.53157932  0.45591866  1
  Sn  Sn25  1  0.72114572  0.96842068  0.04408134  1
  Sn  Sn26  1  0.27885428  0.03157932  0.54408134  1
  Sn  Sn27  1  0.77885428  0.46842068  0.95591866  1
  Sn  Sn28  1  0.17235060  0.63747999  0.75000000  1
  Sn  Sn29  1  0.67235060  0.86252001  0.75000000  1
  Sn  Sn30  1  0.32764940  0.13747999  0.25000000  1
  Sn  Sn31  1  0.82764940  0.36252001  0.25000000  1
  Sn  Sn32  1  0.91734626  0.11158618  0.75000000  1
  Sn  Sn33  1  0.41734626  0.38841382  0.75000000  1
  Sn  Sn34  1  0.58265374  0.61158618  0.25000000  1
  Sn  Sn35  1  0.08265374  0.88841382  0.25000000  1
