# generated using pymatgen
data_La3Yb
_symmetry_space_group_name_H-M   'P 1'
_cell_length_a   6.52715600
_cell_length_b   6.52715600
_cell_length_c   6.52715600
_cell_angle_alpha   132.43392944
_cell_angle_beta   132.43392944
_cell_angle_gamma   69.54453993
_symmetry_Int_Tables_number   1
_chemical_formula_structural   La3Yb
_chemical_formula_sum   'La3 Yb1'
_cell_volume   148.59400777
_cell_formula_units_Z   1
loop_
 _symmetry_equiv_pos_site_id
 _symmetry_equiv_pos_as_xyz
  1  'x, y, z'
loop_
 _atom_site_type_symbol
 _atom_site_label
 _atom_site_symmetry_multiplicity
 _atom_site_fract_x
 _atom_site_fract_y
 _atom_site_fract_z
 _atom_site_occupancy
  La  La0  1  0.75000000  0.25000000  0.50000000  1
  La  La1  1  0.25000000  0.75000000  0.50000000  1
  La  La2  1  0.50000000  0.50000000  -0.00000000  1
  Yb  Yb3  1  -0.00000000  -0.00000000  -0.00000000  1
