# generated using pymatgen
data_La2I5
_symmetry_space_group_name_H-M   'P 1'
_cell_length_a   4.45794898
_cell_length_b   8.95368597
_cell_length_c   14.85059140
_cell_angle_alpha   88.41370656
_cell_angle_beta   90.00000000
_cell_angle_gamma   90.00000000
_symmetry_Int_Tables_number   1
_chemical_formula_structural   La2I5
_chemical_formula_sum   'La4 I10'
_cell_volume   592.53530622
_cell_formula_units_Z   2
loop_
 _symmetry_equiv_pos_site_id
 _symmetry_equiv_pos_as_xyz
  1  'x, y, z'
loop_
 _atom_site_type_symbol
 _atom_site_label
 _atom_site_symmetry_multiplicity
 _atom_site_fract_x
 _atom_site_fract_y
 _atom_site_fract_z
 _atom_site_occupancy
  La  La0  1  0.25000000  0.90681395  0.15635002  1
  La  La1  1  0.75000000  0.09318705  0.84364998  1
  La  La2  1  0.25000000  0.41742404  0.65783490  1
  La  La3  1  0.75000000  0.58257596  0.34216510  1
  I  I4  1  0.25000000  0.34992235  0.27799397  1
  I  I5  1  0.75000000  0.65007765  0.72200603  1
  I  I6  1  0.25000000  0.85688387  0.92809939  1
  I  I7  1  0.75000000  0.14311613  0.07190061  1
  I  I8  1  0.75000000  0.31072597  0.51130014  1
  I  I9  1  0.25000000  0.68927403  0.48869986  1
  I  I10  1  0.75000000  0.94891339  0.31566237  1
  I  I11  1  0.25000000  0.05108661  0.68433763  1
  I  I12  1  0.75000000  0.64728265  0.12195058  1
  I  I13  1  0.25000000  0.35271735  0.87804942  1
