# generated using pymatgen
data_La2Br5
_symmetry_space_group_name_H-M   'P 1'
_cell_length_a   4.29180382
_cell_length_b   7.91869721
_cell_length_c   13.61694414
_cell_angle_alpha   90.96330841
_cell_angle_beta   90.00000000
_cell_angle_gamma   90.00000000
_symmetry_Int_Tables_number   1
_chemical_formula_structural   La2Br5
_chemical_formula_sum   'La4 Br10'
_cell_volume   462.71317989
_cell_formula_units_Z   2
loop_
 _symmetry_equiv_pos_site_id
 _symmetry_equiv_pos_as_xyz
  1  'x, y, z'
loop_
 _atom_site_type_symbol
 _atom_site_label
 _atom_site_symmetry_multiplicity
 _atom_site_fract_x
 _atom_site_fract_y
 _atom_site_fract_z
 _atom_site_occupancy
  La  La0  1  0.25000000  0.93073786  0.16239221  1
  La  La1  1  0.75000000  0.06926214  0.83760779  1
  La  La2  1  0.25000000  0.42588347  0.65930664  1
  La  La3  1  0.75000000  0.57411653  0.34069336  1
  Br  Br4  1  0.25000000  0.33020050  0.27032440  1
  Br  Br5  1  0.75000000  0.66979950  0.72967560  1
  Br  Br6  1  0.25000000  0.85044733  0.93179528  1
  Br  Br7  1  0.75000000  0.14955267  0.06820472  1
  Br  Br8  1  0.75000000  0.30990943  0.51218682  1
  Br  Br9  1  0.25000000  0.69009057  0.48781318  1
  Br  Br10  1  0.75000000  0.95610263  0.32284143  1
  Br  Br11  1  0.25000000  0.04389737  0.67715857  1
  Br  Br12  1  0.75000000  0.65758354  0.12200743  1
  Br  Br13  1  0.25000000  0.34241646  0.87799257  1
