# generated using pymatgen
data_LaGe
_symmetry_space_group_name_H-M   'P 1'
_cell_length_a   4.59200938
_cell_length_b   6.76916224
_cell_length_c   7.29629435
_cell_angle_alpha   90.00000000
_cell_angle_beta   108.36148304
_cell_angle_gamma   90.00000000
_symmetry_Int_Tables_number   1
_chemical_formula_structural   LaGe
_chemical_formula_sum   'La4 Ge4'
_cell_volume   215.25166259
_cell_formula_units_Z   4
loop_
 _symmetry_equiv_pos_site_id
 _symmetry_equiv_pos_as_xyz
  1  'x, y, z'
loop_
 _atom_site_type_symbol
 _atom_site_label
 _atom_site_symmetry_multiplicity
 _atom_site_fract_x
 _atom_site_fract_y
 _atom_site_fract_z
 _atom_site_occupancy
  La  La0  1  0.95257011  0.25000000  0.90502098  1
  La  La1  1  0.04742989  0.75000000  0.09497902  1
  La  La2  1  0.77452581  0.75000000  0.54917189  1
  La  La3  1  0.22547319  0.25000000  0.45082611  1
  Ge  Ge4  1  0.59914131  0.05604274  0.19795874  1
  Ge  Ge5  1  0.40085869  0.94395726  0.80204226  1
  Ge  Ge6  1  0.59914131  0.44395726  0.19795874  1
  Ge  Ge7  1  0.40085869  0.55604274  0.80204226  1
