# generated using pymatgen
data_LaAs2
_symmetry_space_group_name_H-M   'P 1'
_cell_length_a   4.26009580
_cell_length_b   6.98209088
_cell_length_c   10.34579044
_cell_angle_alpha   90.00000000
_cell_angle_beta   96.58363959
_cell_angle_gamma   90.00000000
_symmetry_Int_Tables_number   1
_chemical_formula_structural   LaAs2
_chemical_formula_sum   'La4 As8'
_cell_volume   305.69977572
_cell_formula_units_Z   4
loop_
 _symmetry_equiv_pos_site_id
 _symmetry_equiv_pos_as_xyz
  1  'x, y, z'
loop_
 _atom_site_type_symbol
 _atom_site_label
 _atom_site_symmetry_multiplicity
 _atom_site_fract_x
 _atom_site_fract_y
 _atom_site_fract_z
 _atom_site_occupancy
  La  La0  1  0.72799804  0.81401452  0.63955994  1
  La  La1  1  0.77200196  0.31401452  0.86044006  1
  La  La2  1  0.27200196  0.18598548  0.36044006  1
  La  La3  1  0.22799804  0.68598548  0.13955994  1
  As  As4  1  0.20306595  0.14957819  0.66958383  1
  As  As5  1  0.29693405  0.64957819  0.83041617  1
  As  As6  1  0.79693405  0.85042181  0.33041617  1
  As  As7  1  0.70306595  0.35042181  0.16958383  1
  As  As8  1  0.66657264  0.87686193  0.95118217  1
  As  As9  1  0.83342736  0.37686193  0.54881783  1
  As  As10  1  0.33342736  0.12313807  0.04881783  1
  As  As11  1  0.16657264  0.62313807  0.45118217  1
