# generated using pymatgen
data_La3Zn22
_symmetry_space_group_name_H-M   'P 1'
_cell_length_a   8.87000703
_cell_length_b   8.87000703
_cell_length_c   12.32326514
_cell_angle_alpha   111.05326687
_cell_angle_beta   111.05326687
_cell_angle_gamma   89.95736721
_symmetry_Int_Tables_number   1
_chemical_formula_structural   La3Zn22
_chemical_formula_sum   'La6 Zn44'
_cell_volume   835.22265823
_cell_formula_units_Z   2
loop_
 _symmetry_equiv_pos_site_id
 _symmetry_equiv_pos_as_xyz
  1  'x, y, z'
loop_
 _atom_site_type_symbol
 _atom_site_label
 _atom_site_symmetry_multiplicity
 _atom_site_fract_x
 _atom_site_fract_y
 _atom_site_fract_z
 _atom_site_occupancy
  La  La0  1  0.49655712  0.74668860  0.99297049  1
  La  La1  1  0.74668860  0.49655712  0.49297049  1
  La  La2  1  0.50344288  0.25331140  0.00702951  1
  La  La3  1  0.25331140  0.50344288  0.50702951  1
  La  La4  1  0.12510383  0.87489617  0.25000000  1
  La  La5  1  0.87489617  0.12510383  0.75000000  1
  Zn  Zn6  1  0.42220479  0.19463791  0.37712172  1
  Zn  Zn7  1  0.42194723  0.68235235  0.37693082  1
  Zn  Zn8  1  0.19463791  0.42220479  0.87712172  1
  Zn  Zn9  1  0.19468731  0.95495778  0.87705109  1
  Zn  Zn10  1  0.95495778  0.19468731  0.37705109  1
  Zn  Zn11  1  0.95506049  0.68262456  0.37709435  1
  Zn  Zn12  1  0.68235235  0.42194723  0.87693082  1
  Zn  Zn13  1  0.68262456  0.95506049  0.87709435  1
  Zn  Zn14  1  0.57779521  0.80536209  0.62287828  1
  Zn  Zn15  1  0.57805277  0.31764765  0.62306918  1
  Zn  Zn16  1  0.80536209  0.57779521  0.12287828  1
  Zn  Zn17  1  0.80531269  0.04504222  0.12294891  1
  Zn  Zn18  1  0.04504222  0.80531269  0.62294891  1
  Zn  Zn19  1  0.04493951  0.31737544  0.62290565  1
  Zn  Zn20  1  0.31764765  0.57805277  0.12306918  1
  Zn  Zn21  1  0.31737544  0.04493951  0.12290565  1
  Zn  Zn22  1  0.14512193  0.62277701  0.74584419  1
  Zn  Zn23  1  0.62277701  0.14512193  0.24584419  1
  Zn  Zn24  1  0.62269754  0.60050575  0.24560210  1
  Zn  Zn25  1  0.60050575  0.62269754  0.74560210  1
  Zn  Zn26  1  0.85487807  0.37722299  0.25415581  1
  Zn  Zn27  1  0.37722299  0.85487807  0.75415581  1
  Zn  Zn28  1  0.37730246  0.39949425  0.75439790  1
  Zn  Zn29  1  0.39949425  0.37730246  0.25439790  1
  Zn  Zn30  1  0.48856825  0.88430571  0.26893700  1
  Zn  Zn31  1  0.88430571  0.48856825  0.76893700  1
  Zn  Zn32  1  0.88460451  0.78016450  0.76882885  1
  Zn  Zn33  1  0.78016450  0.88460451  0.26882885  1
  Zn  Zn34  1  0.51143175  0.11569429  0.73106300  1
  Zn  Zn35  1  0.11569429  0.51143175  0.23106300  1
  Zn  Zn36  1  0.11539549  0.21983550  0.23117115  1
  Zn  Zn37  1  0.21983550  0.11539549  0.73117115  1
  Zn  Zn38  1  0.83601531  0.73531053  0.97090628  1
  Zn  Zn39  1  0.73531053  0.83601531  0.47090628  1
  Zn  Zn40  1  0.73549623  0.13465214  0.47089871  1
  Zn  Zn41  1  0.13465214  0.73549623  0.97089871  1
  Zn  Zn42  1  0.16398469  0.26468947  0.02909372  1
  Zn  Zn43  1  0.26468947  0.16398469  0.52909372  1
  Zn  Zn44  1  0.26450377  0.86534786  0.52910129  1
  Zn  Zn45  1  0.86534786  0.26450377  0.02910129  1
  Zn  Zn46  1  0.50000000  0.00000000  0.50000000  1
  Zn  Zn47  1  -0.00000000  0.50000000  -0.00000000  1
  Zn  Zn48  1  -0.00000000  0.00000000  -0.00000000  1
  Zn  Zn49  1  -0.00000000  0.00000000  0.50000000  1
