# generated using pymatgen
data_La2Rh7
_symmetry_space_group_name_H-M   'P 1'
_cell_length_a   5.30488671
_cell_length_b   5.30488760
_cell_length_c   26.37154634
_cell_angle_alpha   90.00000000
_cell_angle_beta   90.00000000
_cell_angle_gamma   120.00000382
_symmetry_Int_Tables_number   1
_chemical_formula_structural   La2Rh7
_chemical_formula_sum   'La8 Rh28'
_cell_volume   642.71511196
_cell_formula_units_Z   4
loop_
 _symmetry_equiv_pos_site_id
 _symmetry_equiv_pos_as_xyz
  1  'x, y, z'
loop_
 _atom_site_type_symbol
 _atom_site_label
 _atom_site_symmetry_multiplicity
 _atom_site_fract_x
 _atom_site_fract_y
 _atom_site_fract_z
 _atom_site_occupancy
  La  La0  1  0.66666700  0.33333300  0.52992518  1
  La  La1  1  0.33333300  0.66666700  0.02992518  1
  La  La2  1  0.33333300  0.66666700  0.17430477  1
  La  La3  1  0.66666700  0.33333300  0.97007482  1
  La  La4  1  0.66666700  0.33333300  0.67430477  1
  La  La5  1  0.66666700  0.33333300  0.82569523  1
  La  La6  1  0.33333300  0.66666700  0.32569523  1
  La  La7  1  0.33333300  0.66666700  0.47007482  1
  Rh  Rh8  1  -0.00000000  -0.00000000  0.66760643  1
  Rh  Rh9  1  0.83351525  0.66703050  0.25000000  1
  Rh  Rh10  1  0.16645332  0.33290664  0.58638061  1
  Rh  Rh11  1  0.83354668  0.16645332  0.41361939  1
  Rh  Rh12  1  0.66709336  0.83354668  0.91361939  1
  Rh  Rh13  1  0.33333300  0.66666700  0.83302460  1
  Rh  Rh14  1  0.83354668  0.66709336  0.08638061  1
  Rh  Rh15  1  0.83354668  0.66709336  0.41361939  1
  Rh  Rh16  1  0.16645332  0.83354668  0.91361939  1
  Rh  Rh17  1  0.66666700  0.33333300  0.33302460  1
  Rh  Rh18  1  -0.00000000  -0.00000000  0.33239357  1
  Rh  Rh19  1  0.16645332  0.83354668  0.58638061  1
  Rh  Rh20  1  0.33290664  0.16645332  0.41361939  1
  Rh  Rh21  1  -0.00000000  -0.00000000  -0.00000000  1
  Rh  Rh22  1  -0.00000000  -0.00000000  0.16760643  1
  Rh  Rh23  1  0.33333300  0.66666700  0.66697540  1
  Rh  Rh24  1  0.66709336  0.83354668  0.58638061  1
  Rh  Rh25  1  0.66703050  0.83351525  0.75000000  1
  Rh  Rh26  1  0.83354668  0.16645332  0.08638061  1
  Rh  Rh27  1  0.83351525  0.16648375  0.25000000  1
  Rh  Rh28  1  0.33290664  0.16645332  0.08638061  1
  Rh  Rh29  1  0.66666700  0.33333300  0.16697540  1
  Rh  Rh30  1  0.16645332  0.33290664  0.91361939  1
  Rh  Rh31  1  -0.00000000  -0.00000000  0.50000000  1
  Rh  Rh32  1  0.16648475  0.33296950  0.75000000  1
  Rh  Rh33  1  -0.00000000  -0.00000000  0.83239357  1
  Rh  Rh34  1  0.16648475  0.83351625  0.75000000  1
  Rh  Rh35  1  0.33296950  0.16648475  0.25000000  1
