# generated using pymatgen
data_La4Ge7
_symmetry_space_group_name_H-M   'P 1'
_cell_length_a   6.13565304
_cell_length_b   7.73360368
_cell_length_c   12.27368053
_cell_angle_alpha   90.00000000
_cell_angle_beta   90.00000000
_cell_angle_gamma   113.37127787
_symmetry_Int_Tables_number   1
_chemical_formula_structural   La4Ge7
_chemical_formula_sum   'La8 Ge14'
_cell_volume   534.61144145
_cell_formula_units_Z   2
loop_
 _symmetry_equiv_pos_site_id
 _symmetry_equiv_pos_as_xyz
  1  'x, y, z'
loop_
 _atom_site_type_symbol
 _atom_site_label
 _atom_site_symmetry_multiplicity
 _atom_site_fract_x
 _atom_site_fract_y
 _atom_site_fract_z
 _atom_site_occupancy
  La  La0  1  0.48170205  0.49056390  0.38019072  1
  La  La1  1  0.51829795  0.50943610  0.88019072  1
  La  La2  1  0.00886085  0.49056390  0.11980928  1
  La  La3  1  0.99113915  0.50943610  0.61980928  1
  La  La4  1  0.50423842  0.00847684  0.25000000  1
  La  La5  1  0.49576158  0.99152316  0.75000000  1
  La  La6  1  0.01103732  0.00000000  0.00000000  1
  La  La7  1  0.98896268  1.00000000  0.50000000  1
  Ge  Ge8  1  0.07065427  0.14130953  0.25000000  1
  Ge  Ge9  1  0.92934573  0.85869047  0.75000000  1
  Ge  Ge10  1  0.41930599  0.34274802  0.12706667  1
  Ge  Ge11  1  0.58069401  0.65725198  0.62706667  1
  Ge  Ge12  1  0.92344304  0.34274802  0.37293333  1
  Ge  Ge13  1  0.07655696  0.65725198  0.87293333  1
  Ge  Ge14  1  0.66270743  0.69476820  0.15704695  1
  Ge  Ge15  1  0.33729257  0.30523180  0.65704595  1
  Ge  Ge16  1  0.03206077  0.69476820  0.34295405  1
  Ge  Ge17  1  0.96793923  0.30523180  0.84295405  1
  Ge  Ge18  1  0.42898949  0.82636590  0.01067535  1
  Ge  Ge19  1  0.57101051  0.17363410  0.51067535  1
  Ge  Ge20  1  0.39737640  0.82636590  0.48932465  1
  Ge  Ge21  1  0.60262360  0.17363410  0.98932465  1
