# generated using pymatgen
data_La3Pt2
_symmetry_space_group_name_H-M   'P 1'
_cell_length_a   7.83795313
_cell_length_b   7.83795459
_cell_length_c   7.83795355
_cell_angle_alpha   71.33502218
_cell_angle_beta   71.33502172
_cell_angle_gamma   71.33502031
_symmetry_Int_Tables_number   1
_chemical_formula_structural   La3Pt2
_chemical_formula_sum   'La9 Pt6'
_cell_volume   419.30132124
_cell_formula_units_Z   3
loop_
 _symmetry_equiv_pos_site_id
 _symmetry_equiv_pos_as_xyz
  1  'x, y, z'
loop_
 _atom_site_type_symbol
 _atom_site_label
 _atom_site_symmetry_multiplicity
 _atom_site_fract_x
 _atom_site_fract_y
 _atom_site_fract_z
 _atom_site_occupancy
  La  La0  1  -0.00000000  -0.00000000  -0.00000000  1
  La  La1  1  0.80058651  0.80058651  0.80058651  1
  La  La2  1  0.19941349  0.19941349  0.19941349  1
  La  La3  1  0.32841484  0.60673642  0.83844473  1
  La  La4  1  0.83844473  0.32841384  0.60673642  1
  La  La5  1  0.60673642  0.83844473  0.32841384  1
  La  La6  1  0.67158516  0.39326358  0.16155527  1
  La  La7  1  0.16155527  0.67158616  0.39326358  1
  La  La8  1  0.39326358  0.16155527  0.67158616  1
  Pt  Pt9  1  0.16760421  0.95840469  0.58876541  1
  Pt  Pt10  1  0.58876541  0.16760421  0.95840469  1
  Pt  Pt11  1  0.95840469  0.58876541  0.16760421  1
  Pt  Pt12  1  0.83239579  0.04159531  0.41123459  1
  Pt  Pt13  1  0.41123459  0.83239579  0.04159531  1
  Pt  Pt14  1  0.04159531  0.41123459  0.83239579  1
