# generated using pymatgen
data_Li7Si2
_symmetry_space_group_name_H-M   'P 1'
_cell_length_a   4.46092654
_cell_length_b   8.00545356
_cell_length_c   14.84650201
_cell_angle_alpha   90.00000000
_cell_angle_beta   90.00000000
_cell_angle_gamma   90.00000000
_symmetry_Int_Tables_number   1
_chemical_formula_structural   Li7Si2
_chemical_formula_sum   'Li28 Si8'
_cell_volume   530.19442341
_cell_formula_units_Z   4
loop_
 _symmetry_equiv_pos_site_id
 _symmetry_equiv_pos_as_xyz
  1  'x, y, z'
loop_
 _atom_site_type_symbol
 _atom_site_label
 _atom_site_symmetry_multiplicity
 _atom_site_fract_x
 _atom_site_fract_y
 _atom_site_fract_z
 _atom_site_occupancy
  Li  Li0  1  -0.00000000  0.00000000  0.00000000  1
  Li  Li1  1  0.00000000  0.50000000  0.50000000  1
  Li  Li2  1  0.50000000  0.50000000  0.00000000  1
  Li  Li3  1  0.50000000  0.00000000  0.50000000  1
  Li  Li4  1  0.50000000  0.12004873  0.35608927  1
  Li  Li5  1  0.50000000  0.87995127  0.64391073  1
  Li  Li6  1  0.50000000  0.62004873  0.14391073  1
  Li  Li7  1  0.50000000  0.37995127  0.85608927  1
  Li  Li8  1  0.50000000  0.23393691  0.10167270  1
  Li  Li9  1  0.50000000  0.76606309  0.89832730  1
  Li  Li10  1  0.50000000  0.73393691  0.39832730  1
  Li  Li11  1  0.50000000  0.26606309  0.60167270  1
  Li  Li12  1  0.50000000  0.41423810  0.25752642  1
  Li  Li13  1  0.50000000  0.58576190  0.74247358  1
  Li  Li14  1  0.50000000  0.91423810  0.24247358  1
  Li  Li15  1  0.50000000  0.08576190  0.75752642  1
  Li  Li16  1  -0.00000000  0.32527850  0.98656705  1
  Li  Li17  1  -0.00000000  0.67472150  0.01343295  1
  Li  Li18  1  0.00000000  0.82527850  0.51343295  1
  Li  Li19  1  0.00000000  0.17472150  0.48656705  1
  Li  Li20  1  -0.00000000  0.11501309  0.18899500  1
  Li  Li21  1  0.00000000  0.88498691  0.81100500  1
  Li  Li22  1  -0.00000000  0.61501309  0.31100500  1
  Li  Li23  1  -0.00000000  0.38498691  0.68899500  1
  Li  Li24  1  0.00000000  0.29688588  0.33468831  1
  Li  Li25  1  0.00000000  0.70311412  0.66531169  1
  Li  Li26  1  -0.00000000  0.79688588  0.16531169  1
  Li  Li27  1  -0.00000000  0.20311412  0.83468831  1
  Si  Si28  1  0.50000000  0.39954269  0.43570450  1
  Si  Si29  1  0.50000000  0.60045731  0.56429550  1
  Si  Si30  1  0.50000000  0.89954269  0.06429550  1
  Si  Si31  1  0.50000000  0.10045731  0.93570450  1
  Si  Si32  1  -0.00000000  0.44105487  0.15347584  1
  Si  Si33  1  -0.00000000  0.55894513  0.84652416  1
  Si  Si34  1  0.00000000  0.94105487  0.34652416  1
  Si  Si35  1  0.00000000  0.05894513  0.65347584  1
