# generated using pymatgen
data_Li22Si5
_symmetry_space_group_name_H-M   'P 1'
_cell_length_a   13.18393381
_cell_length_b   13.18393381
_cell_length_c   13.18393381
_cell_angle_alpha   60.00000000
_cell_angle_beta   60.00000000
_cell_angle_gamma   60.00000000
_symmetry_Int_Tables_number   1
_chemical_formula_structural   Li22Si5
_chemical_formula_sum   'Li88 Si20'
_cell_volume   1620.39182752
_cell_formula_units_Z   4
loop_
 _symmetry_equiv_pos_site_id
 _symmetry_equiv_pos_as_xyz
  1  'x, y, z'
loop_
 _atom_site_type_symbol
 _atom_site_label
 _atom_site_symmetry_multiplicity
 _atom_site_fract_x
 _atom_site_fract_y
 _atom_site_fract_z
 _atom_site_occupancy
  Li  Li0  1  0.00000000  0.00000000  0.00000000  1
  Li  Li1  1  0.47979500  0.17340200  0.17340200  1
  Li  Li2  1  0.17340200  0.17340200  0.17340200  1
  Li  Li3  1  0.17340200  0.47979500  0.17340200  1
  Li  Li4  1  0.17340200  0.17340200  0.47979500  1
  Li  Li5  1  0.17239000  0.82761000  0.82761000  1
  Li  Li6  1  0.17239000  0.17239000  0.82761000  1
  Li  Li7  1  0.17239000  0.82761000  0.17239000  1
  Li  Li8  1  0.82761000  0.17239000  0.82761000  1
  Li  Li9  1  0.82761000  0.82761000  0.17239000  1
  Li  Li10  1  0.82761000  0.17239000  0.17239000  1
  Li  Li11  1  0.08314500  0.41685500  0.41685500  1
  Li  Li12  1  0.08314500  0.08314500  0.41685500  1
  Li  Li13  1  0.08314500  0.41685500  0.08314500  1
  Li  Li14  1  0.41685500  0.08314500  0.41685500  1
  Li  Li15  1  0.41685500  0.41685500  0.08314500  1
  Li  Li16  1  0.41685500  0.08314500  0.08314500  1
  Li  Li17  1  0.99422000  0.33136400  0.99422000  1
  Li  Li18  1  0.99422000  0.68019600  0.33136400  1
  Li  Li19  1  0.99422000  0.99422000  0.68019600  1
  Li  Li20  1  0.33136400  0.68019600  0.99422000  1
  Li  Li21  1  0.68019600  0.99422000  0.99422000  1
  Li  Li22  1  0.99422000  0.33136400  0.68019600  1
  Li  Li23  1  0.68019600  0.33136400  0.99422000  1
  Li  Li24  1  0.33136400  0.99422000  0.99422000  1
  Li  Li25  1  0.99422000  0.99422000  0.33136400  1
  Li  Li26  1  0.33136400  0.99422000  0.68019600  1
  Li  Li27  1  0.68019600  0.99422000  0.33136400  1
  Li  Li28  1  0.99422000  0.68019600  0.99422000  1
  Li  Li29  1  0.82899200  0.49363400  0.18374000  1
  Li  Li30  1  0.82899200  0.49363400  0.49363400  1
  Li  Li31  1  0.82899200  0.18374000  0.49363400  1
  Li  Li32  1  0.49363400  0.49363400  0.18374000  1
  Li  Li33  1  0.49363400  0.82899200  0.18374000  1
  Li  Li34  1  0.18374000  0.49363400  0.49363400  1
  Li  Li35  1  0.49363400  0.49363400  0.82899200  1
  Li  Li36  1  0.49363400  0.18374000  0.82899200  1
  Li  Li37  1  0.18374000  0.82899200  0.49363400  1
  Li  Li38  1  0.49363400  0.82899200  0.49363400  1
  Li  Li39  1  0.49363400  0.18374000  0.49363400  1
  Li  Li40  1  0.18374000  0.49363400  0.82899200  1
  Li  Li41  1  0.43935900  0.74171700  0.74171700  1
  Li  Li42  1  0.43935900  0.07720700  0.74171700  1
  Li  Li43  1  0.43935900  0.74171700  0.07720700  1
  Li  Li44  1  0.74171700  0.07720700  0.74171700  1
  Li  Li45  1  0.07720700  0.43935900  0.74171700  1
  Li  Li46  1  0.74171700  0.74171700  0.07720700  1
  Li  Li47  1  0.07720700  0.74171700  0.43935900  1
  Li  Li48  1  0.74171700  0.74171700  0.43935900  1
  Li  Li49  1  0.74171700  0.43935900  0.74171700  1
  Li  Li50  1  0.74171700  0.43935900  0.07720700  1
  Li  Li51  1  0.07720700  0.74171700  0.74171700  1
  Li  Li52  1  0.74171700  0.07720700  0.43935900  1
  Li  Li53  1  0.92093900  0.25029600  0.25029600  1
  Li  Li54  1  0.92093900  0.57846800  0.25029600  1
  Li  Li55  1  0.92093900  0.25029600  0.57846800  1
  Li  Li56  1  0.25029600  0.57846800  0.25029600  1
  Li  Li57  1  0.57846800  0.92093900  0.25029600  1
  Li  Li58  1  0.25029600  0.25029600  0.57846800  1
  Li  Li59  1  0.57846800  0.25029600  0.92093900  1
  Li  Li60  1  0.25029600  0.25029600  0.92093900  1
  Li  Li61  1  0.25029600  0.92093900  0.25029600  1
  Li  Li62  1  0.25029600  0.92093900  0.57846800  1
  Li  Li63  1  0.57846800  0.25029600  0.25029600  1
  Li  Li64  1  0.25029600  0.57846800  0.92093900  1
  Li  Li65  1  0.50000000  0.50000000  0.50000000  1
  Li  Li66  1  0.75000000  0.75000000  0.75000000  1
  Li  Li67  1  0.25000000  0.25000000  0.25000000  1
  Li  Li68  1  0.21445900  0.92851400  0.92851400  1
  Li  Li69  1  0.92851400  0.92851400  0.92851400  1
  Li  Li70  1  0.92851400  0.21445900  0.92851400  1
  Li  Li71  1  0.92851400  0.92851400  0.21445900  1
  Li  Li72  1  0.50408400  0.83197200  0.83197200  1
  Li  Li73  1  0.83197200  0.83197200  0.83197200  1
  Li  Li74  1  0.83197200  0.50408400  0.83197200  1
  Li  Li75  1  0.83197200  0.83197200  0.50408400  1
  Li  Li76  1  0.97490700  0.67503100  0.67503100  1
  Li  Li77  1  0.67503100  0.67503100  0.67503100  1
  Li  Li78  1  0.67503100  0.97490700  0.67503100  1
  Li  Li79  1  0.67503100  0.67503100  0.97490700  1
  Li  Li80  1  0.26957800  0.57680700  0.57680700  1
  Li  Li81  1  0.57680700  0.57680700  0.57680700  1
  Li  Li82  1  0.57680700  0.26957800  0.57680700  1
  Li  Li83  1  0.57680700  0.57680700  0.26957800  1
  Li  Li84  1  0.74852600  0.41715800  0.41715800  1
  Li  Li85  1  0.41715800  0.41715800  0.41715800  1
  Li  Li86  1  0.41715800  0.74852600  0.41715800  1
  Li  Li87  1  0.41715800  0.41715800  0.74852600  1
  Si  Si88  1  0.73573300  0.08808900  0.08808900  1
  Si  Si89  1  0.08808900  0.08808900  0.08808900  1
  Si  Si90  1  0.08808900  0.73573300  0.08808900  1
  Si  Si91  1  0.08808900  0.08808900  0.73573300  1
  Si  Si92  1  0.00003800  0.33332100  0.33332100  1
  Si  Si93  1  0.33332100  0.33332100  0.33332100  1
  Si  Si94  1  0.33332100  0.00003800  0.33332100  1
  Si  Si95  1  0.33332100  0.33332100  0.00003800  1
  Si  Si96  1  0.32415500  0.67584500  0.67584500  1
  Si  Si97  1  0.32415500  0.32415500  0.67584500  1
  Si  Si98  1  0.32415500  0.67584500  0.32415500  1
  Si  Si99  1  0.67584500  0.32415500  0.67584500  1
  Si  Si100  1  0.67584500  0.67584500  0.32415500  1
  Si  Si101  1  0.67584500  0.32415500  0.32415500  1
  Si  Si102  1  0.57451500  0.92548500  0.92548500  1
  Si  Si103  1  0.57451500  0.57451500  0.92548500  1
  Si  Si104  1  0.57451500  0.92548500  0.57451500  1
  Si  Si105  1  0.92548500  0.57451500  0.92548500  1
  Si  Si106  1  0.92548500  0.92548500  0.57451500  1
  Si  Si107  1  0.92548500  0.57451500  0.57451500  1
