# generated using pymatgen
data_Lu2C
_symmetry_space_group_name_H-M   'P 1'
_cell_length_a   3.49450599
_cell_length_b   3.49450599
_cell_length_c   6.17649107
_cell_angle_alpha   73.56737594
_cell_angle_beta   90.00000000
_cell_angle_gamma   120.00000000
_symmetry_Int_Tables_number   1
_chemical_formula_structural   Lu2C
_chemical_formula_sum   'Lu2 C1'
_cell_volume   61.73657877
_cell_formula_units_Z   1
loop_
 _symmetry_equiv_pos_site_id
 _symmetry_equiv_pos_as_xyz
  1  'x, y, z'
loop_
 _atom_site_type_symbol
 _atom_site_label
 _atom_site_symmetry_multiplicity
 _atom_site_fract_x
 _atom_site_fract_y
 _atom_site_fract_z
 _atom_site_occupancy
  Lu  Lu0  1  0.99082789  0.98165379  0.02751832  1
  Lu  Lu1  1  0.50917211  0.01834621  0.47248168  1
  C  C2  1  0.25000000  0.50000000  0.25000000  1
