# generated using pymatgen
data_MgCl2
_symmetry_space_group_name_H-M   'P 1'
_cell_length_a   6.41097228
_cell_length_b   6.41097214
_cell_length_c   6.41097250
_cell_angle_alpha   32.98643330
_cell_angle_beta   32.98643731
_cell_angle_gamma   32.98643406
_symmetry_Int_Tables_number   1
_chemical_formula_structural   MgCl2
_chemical_formula_sum   'Mg1 Cl2'
_cell_volume   69.50417282
_cell_formula_units_Z   1
loop_
 _symmetry_equiv_pos_site_id
 _symmetry_equiv_pos_as_xyz
  1  'x, y, z'
loop_
 _atom_site_type_symbol
 _atom_site_label
 _atom_site_symmetry_multiplicity
 _atom_site_fract_x
 _atom_site_fract_y
 _atom_site_fract_z
 _atom_site_occupancy
  Mg  Mg0  1  0.00000000  -0.00000000  0.00000000  1
  Cl  Cl1  1  0.25810109  0.25810109  0.25810109  1
  Cl  Cl2  1  0.74189891  0.74189891  0.74189891  1
