# generated using pymatgen
data_MgCl6
_symmetry_space_group_name_H-M   'P 1'
_cell_length_a   10.19082240
_cell_length_b   9.39450253
_cell_length_c   47.40683453
_cell_angle_alpha   90.00000000
_cell_angle_beta   90.00000000
_cell_angle_gamma   122.84595572
_symmetry_Int_Tables_number   1
_chemical_formula_structural   MgCl6
_chemical_formula_sum   'Mg1 Cl6'
_cell_volume   3813.04053911
_cell_formula_units_Z   1
loop_
 _symmetry_equiv_pos_site_id
 _symmetry_equiv_pos_as_xyz
  1  'x, y, z'
loop_
 _atom_site_type_symbol
 _atom_site_label
 _atom_site_symmetry_multiplicity
 _atom_site_fract_x
 _atom_site_fract_y
 _atom_site_fract_z
 _atom_site_occupancy
  Mg  Mg0  1  0.00000000  -0.00000000  -0.00000000  1
  Cl  Cl1  1  -0.00000000  -0.00000000  0.75001807  1
  Cl  Cl2  1  -0.00000000  -0.00000000  0.24998193  1
  Cl  Cl3  1  0.74743552  0.75618265  0.00000000  1
  Cl  Cl4  1  0.25256448  0.24381735  -0.00000000  1
  Cl  Cl5  1  0.99125287  0.24381735  0.00000000  1
  Cl  Cl6  1  0.00874713  0.75618265  -0.00000000  1
