# generated using pymatgen
data_MgB4
_symmetry_space_group_name_H-M   'P 1'
_cell_length_a   4.37815396
_cell_length_b   5.46947776
_cell_length_c   7.41296893
_cell_angle_alpha   90.00000000
_cell_angle_beta   90.00000000
_cell_angle_gamma   90.00000000
_symmetry_Int_Tables_number   1
_chemical_formula_structural   MgB4
_chemical_formula_sum   'Mg4 B16'
_cell_volume   177.51255308
_cell_formula_units_Z   4
loop_
 _symmetry_equiv_pos_site_id
 _symmetry_equiv_pos_as_xyz
  1  'x, y, z'
loop_
 _atom_site_type_symbol
 _atom_site_label
 _atom_site_symmetry_multiplicity
 _atom_site_fract_x
 _atom_site_fract_y
 _atom_site_fract_z
 _atom_site_occupancy
  Mg  Mg0  1  0.75000000  0.95379716  0.13907159  1
  Mg  Mg1  1  0.25000000  0.04620284  0.86092841  1
  Mg  Mg2  1  0.75000000  0.45379716  0.36092841  1
  Mg  Mg3  1  0.25000000  0.54620284  0.63907159  1
  B  B4  1  0.75000000  0.27837325  0.65270989  1
  B  B5  1  0.25000000  0.72162675  0.34729011  1
  B  B6  1  0.75000000  0.77837325  0.84729011  1
  B  B7  1  0.25000000  0.22162675  0.15270989  1
  B  B8  1  0.75000000  0.44690660  0.85259768  1
  B  B9  1  0.25000000  0.55309340  0.14740232  1
  B  B10  1  0.75000000  0.94690660  0.64740232  1
  B  B11  1  0.25000000  0.05309340  0.35259768  1
  B  B12  1  0.55799918  0.86690139  0.43715726  1
  B  B13  1  0.05799918  0.13309861  0.56284274  1
  B  B14  1  0.94200082  0.36690139  0.06284274  1
  B  B15  1  0.44200082  0.63309861  0.93715726  1
  B  B16  1  0.44200082  0.13309861  0.56284274  1
  B  B17  1  0.94200082  0.86690139  0.43715726  1
  B  B18  1  0.05799918  0.63309861  0.93715726  1
  B  B19  1  0.55799918  0.36690139  0.06284274  1
