# generated using pymatgen
data_Mn2O3
_symmetry_space_group_name_H-M   'P 1'
_cell_length_a   8.15858745
_cell_length_b   8.15868290
_cell_length_c   8.15866256
_cell_angle_alpha   109.47108703
_cell_angle_beta   109.47065509
_cell_angle_gamma   109.47091427
_symmetry_Int_Tables_number   1
_chemical_formula_structural   Mn2O3
_chemical_formula_sum   'Mn16 O24'
_cell_volume   418.05892250
_cell_formula_units_Z   8
loop_
 _symmetry_equiv_pos_site_id
 _symmetry_equiv_pos_as_xyz
  1  'x, y, z'
loop_
 _atom_site_type_symbol
 _atom_site_label
 _atom_site_symmetry_multiplicity
 _atom_site_fract_x
 _atom_site_fract_y
 _atom_site_fract_z
 _atom_site_occupancy
  Mn  Mn0  1  0.50000000  -0.00000000  0.00000000  1
  Mn  Mn1  1  0.00000000  0.50000000  0.00000000  1
  Mn  Mn2  1  0.00000000  -0.00000000  0.50000000  1
  Mn  Mn3  1  0.50000000  0.50000000  0.50000000  1
  Mn  Mn4  1  0.25006402  0.71519856  0.46522544  1
  Mn  Mn5  1  0.74998241  0.78486816  0.03484357  1
  Mn  Mn6  1  0.71513250  0.46515356  0.25002979  1
  Mn  Mn7  1  0.78482351  0.03477250  0.74998095  1
  Mn  Mn8  1  0.46511906  0.24998565  0.71512709  1
  Mn  Mn9  1  0.03485327  0.75001857  0.78479312  1
  Mn  Mn10  1  0.74993598  0.28480144  0.53477456  1
  Mn  Mn11  1  0.25001759  0.21513184  0.96515643  1
  Mn  Mn12  1  0.28486750  0.53484644  0.74997021  1
  Mn  Mn13  1  0.21517649  0.96522750  0.25001905  1
  Mn  Mn14  1  0.53488094  0.75001435  0.28487291  1
  Mn  Mn15  1  0.96514673  0.24998143  0.21520688  1
  O  O16  1  0.28833040  0.77214076  0.72701908  1
  O  O17  1  0.95487813  0.72788126  0.01618337  1
  O  O18  1  0.21165301  0.93869431  0.48380431  1
  O  O19  1  0.54512754  0.56131362  0.77299198  1
  O  O20  1  0.77214007  0.72701908  0.28832760  1
  O  O21  1  0.72785392  0.01619443  0.95488919  1
  O  O22  1  0.93868660  0.48381168  0.21168717  1
  O  O23  1  0.56131352  0.77297858  0.54512794  1
  O  O24  1  0.72699112  0.28830120  0.77211610  1
  O  O25  1  0.01618749  0.95487690  0.72784765  1
  O  O26  1  0.48380270  0.21166337  0.93868300  1
  O  O27  1  0.77297177  0.54511781  0.56130341  1
  O  O28  1  0.71166960  0.22785924  0.27298092  1
  O  O29  1  0.04512187  0.27211874  0.98381663  1
  O  O30  1  0.78834699  0.06130569  0.51619569  1
  O  O31  1  0.45487246  0.43868638  0.22700802  1
  O  O32  1  0.22785993  0.27298092  0.71167240  1
  O  O33  1  0.27214608  0.98380557  0.04511081  1
  O  O34  1  0.06131340  0.51618832  0.78831283  1
  O  O35  1  0.43868648  0.22702142  0.45487206  1
  O  O36  1  0.27300888  0.71169880  0.22788390  1
  O  O37  1  0.98381251  0.04512310  0.27215235  1
  O  O38  1  0.51619730  0.78833663  0.06131700  1
  O  O39  1  0.22702823  0.45488219  0.43869659  1
