# generated using pymatgen
data_MnP4
_symmetry_space_group_name_H-M   'P 1'
_cell_length_a   5.08778266
_cell_length_b   5.80792397
_cell_length_c   5.83763621
_cell_angle_alpha   107.23526651
_cell_angle_beta   115.86498240
_cell_angle_gamma   93.69909971
_symmetry_Int_Tables_number   1
_chemical_formula_structural   MnP4
_chemical_formula_sum   'Mn2 P8'
_cell_volume   144.43137319
_cell_formula_units_Z   2
loop_
 _symmetry_equiv_pos_site_id
 _symmetry_equiv_pos_as_xyz
  1  'x, y, z'
loop_
 _atom_site_type_symbol
 _atom_site_label
 _atom_site_symmetry_multiplicity
 _atom_site_fract_x
 _atom_site_fract_y
 _atom_site_fract_z
 _atom_site_occupancy
  Mn  Mn0  1  0.78574506  0.27588737  0.78441718  1
  Mn  Mn1  1  0.21425494  0.72411263  0.21558282  1
  P  P2  1  0.39991029  0.80308722  0.95486857  1
  P  P3  1  0.60008971  0.19691278  0.04513143  1
  P  P4  1  0.93838672  0.30503123  0.48858677  1
  P  P5  1  0.06161328  0.69496877  0.51141323  1
  P  P6  1  0.24491189  0.33147152  0.11861480  1
  P  P7  1  0.75508811  0.66852848  0.88138520  1
  P  P8  1  0.30127133  0.15243900  0.42126705  1
  P  P9  1  0.69872867  0.84756100  0.57873295  1
