# generated using pymatgen
data_MnP2
_symmetry_space_group_name_H-M   'P 1'
_cell_length_a   5.05278693
_cell_length_b   5.80908796
_cell_length_c   2.74770316
_cell_angle_alpha   90.00000000
_cell_angle_beta   90.00000000
_cell_angle_gamma   89.63580746
_symmetry_Int_Tables_number   1
_chemical_formula_structural   MnP2
_chemical_formula_sum   'Mn2 P4'
_cell_volume   80.64918393
_cell_formula_units_Z   2
loop_
 _symmetry_equiv_pos_site_id
 _symmetry_equiv_pos_as_xyz
  1  'x, y, z'
loop_
 _atom_site_type_symbol
 _atom_site_label
 _atom_site_symmetry_multiplicity
 _atom_site_fract_x
 _atom_site_fract_y
 _atom_site_fract_z
 _atom_site_occupancy
  Mn  Mn0  1  -0.00000000  -0.00000000  0.00000000  1
  Mn  Mn1  1  0.50000000  0.50000000  0.50000000  1
  P  P2  1  0.17330341  0.38016363  0.00000000  1
  P  P3  1  0.33465029  0.86987379  0.50000000  1
  P  P4  1  0.66534971  0.13012621  0.50000000  1
  P  P5  1  0.82669659  0.61983637  -0.00000000  1
