# generated using pymatgen
data_Mn20O43
_symmetry_space_group_name_H-M   'P 1'
_cell_length_a   8.29737847
_cell_length_b   10.15386683
_cell_length_c   10.15826800
_cell_angle_alpha   87.82214014
_cell_angle_beta   112.36795513
_cell_angle_gamma   112.33351421
_symmetry_Int_Tables_number   1
_chemical_formula_structural   Mn20O43
_chemical_formula_sum   'Mn20 O43'
_cell_volume   726.36877541
_cell_formula_units_Z   1
loop_
 _symmetry_equiv_pos_site_id
 _symmetry_equiv_pos_as_xyz
  1  'x, y, z'
loop_
 _atom_site_type_symbol
 _atom_site_label
 _atom_site_symmetry_multiplicity
 _atom_site_fract_x
 _atom_site_fract_y
 _atom_site_fract_z
 _atom_site_occupancy
  Mn  Mn0  1  0.81800600  0.20288900  0.68746500  1
  Mn  Mn1  1  0.81766200  0.40317100  0.88756700  1
  Mn  Mn2  1  0.81802400  0.60335700  0.08764700  1
  Mn  Mn3  1  0.81803700  0.80366100  0.28733500  1
  Mn  Mn4  1  0.81838900  0.00336200  0.48770500  1
  Mn  Mn5  1  0.18196300  0.19633900  0.71266500  1
  Mn  Mn6  1  0.18197600  0.39664300  0.91235300  1
  Mn  Mn7  1  0.18233800  0.59682900  0.11243300  1
  Mn  Mn8  1  0.18199400  0.79711100  0.31253500  1
  Mn  Mn9  1  0.18161100  0.99663800  0.51229500  1
  Mn  Mn10  1  0.48405300  0.35360300  0.53643700  1
  Mn  Mn11  1  0.48471600  0.55450800  0.73666100  1
  Mn  Mn12  1  0.48443400  0.75452800  0.93660300  1
  Mn  Mn13  1  0.48534300  0.95427300  0.13699200  1
  Mn  Mn14  1  0.48480100  0.15386300  0.33668100  1
  Mn  Mn15  1  0.51465700  0.04572700  0.86300800  1
  Mn  Mn16  1  0.51556600  0.24547200  0.06339700  1
  Mn  Mn17  1  0.51528400  0.44549200  0.26333900  1
  Mn  Mn18  1  0.51594700  0.64639700  0.46356300  1
  Mn  Mn19  1  0.51519900  0.84613700  0.66331900  1
  O  O20  1  0.04719600  0.79384400  0.43437200  1
  O  O21  1  0.04779000  0.59433100  0.23493500  1
  O  O22  1  0.04762600  0.39464100  0.03435800  1
  O  O23  1  0.04751700  0.19490800  0.83395400  1
  O  O24  1  0.04718900  0.99366300  0.63404400  1
  O  O25  1  0.95280400  0.20615600  0.56562800  1
  O  O26  1  0.95281100  0.00633700  0.36595600  1
  O  O27  1  0.95248300  0.80509200  0.16604600  1
  O  O28  1  0.95237400  0.60535900  0.96564200  1
  O  O29  1  0.95221000  0.40566900  0.76506500  1
  O  O30  1  0.63899700  0.91589700  0.86724600  1
  O  O31  1  0.63974300  0.71629400  0.66791800  1
  O  O32  1  0.64004400  0.51579300  0.46789500  1
  O  O33  1  0.63999700  0.31516900  0.26813500  1
  O  O34  1  0.64001100  0.11566000  0.06759500  1
  O  O35  1  0.36100300  0.08410300  0.13275400  1
  O  O36  1  0.35999000  0.88434000  0.93240500  1
  O  O37  1  0.36000300  0.68483100  0.73186500  1
  O  O38  1  0.35995600  0.48420700  0.53210500  1
  O  O39  1  0.36025700  0.28370600  0.33208200  1
  O  O40  1  0.62012900  0.03894300  0.33379400  1
  O  O41  1  0.62016900  0.83891900  0.13283900  1
  O  O42  1  0.61982300  0.63905800  0.93302400  1
  O  O43  1  0.62073900  0.43984000  0.73250300  1
  O  O44  1  0.61979100  0.23801500  0.53269100  1
  O  O45  1  0.37987100  0.96105700  0.66620600  1
  O  O46  1  0.38020900  0.76198500  0.46730900  1
  O  O47  1  0.37926100  0.56016000  0.26749700  1
  O  O48  1  0.38017700  0.36094200  0.06697600  1
  O  O49  1  0.37983100  0.16108100  0.86716100  1
  O  O50  1  0.29299600  0.99871100  0.37722300  1
  O  O51  1  0.29330900  0.79871500  0.17779300  1
  O  O52  1  0.29405500  0.59844000  0.97803300  1
  O  O53  1  0.29275600  0.39844900  0.77689100  1
  O  O54  1  0.29383700  0.19777200  0.57802900  1
  O  O55  1  0.70700400  0.00128900  0.62277700  1
  O  O56  1  0.70616300  0.80222800  0.42197100  1
  O  O57  1  0.70724400  0.60155100  0.22310900  1
  O  O58  1  0.70594500  0.40156000  0.02196700  1
  O  O59  1  0.70669100  0.20128500  0.82220700  1
  O  O60  1  0.00005200  0.90289200  0.90296400  1
  O  O61  1  0.99994800  0.09710800  0.09703600  1
  O  O62  1  0.00000000  0.50000000  0.50000000  1
