# generated using pymatgen
data_Mn4Al9
_symmetry_space_group_name_H-M   'P 1'
_cell_length_a   12.40677400
_cell_length_b   14.74346000
_cell_length_c   12.48635800
_cell_angle_alpha   90.00000000
_cell_angle_beta   90.00000000
_cell_angle_gamma   90.00000000
_symmetry_Int_Tables_number   1
_chemical_formula_structural   Mn4Al9
_chemical_formula_sum   'Mn48 Al108'
_cell_volume   2283.98932453
_cell_formula_units_Z   12
loop_
 _symmetry_equiv_pos_site_id
 _symmetry_equiv_pos_as_xyz
  1  'x, y, z'
loop_
 _atom_site_type_symbol
 _atom_site_label
 _atom_site_symmetry_multiplicity
 _atom_site_fract_x
 _atom_site_fract_y
 _atom_site_fract_z
 _atom_site_occupancy
  Mn  Mn0  1  0.93687900  0.87459400  0.84082500  1
  Mn  Mn1  1  0.06312100  0.12540600  0.15917500  1
  Mn  Mn2  1  0.06312100  0.62540600  0.34082500  1
  Mn  Mn3  1  0.43687900  0.12540600  0.15917500  1
  Mn  Mn4  1  0.93687900  0.37459400  0.65917500  1
  Mn  Mn5  1  0.56312100  0.87459400  0.84082500  1
  Mn  Mn6  1  0.56312100  0.37459400  0.65917500  1
  Mn  Mn7  1  0.43687900  0.62540600  0.34082500  1
  Mn  Mn8  1  0.75000000  0.66709900  0.65538100  1
  Mn  Mn9  1  0.25000000  0.33290000  0.34461900  1
  Mn  Mn10  1  0.25000000  0.83290100  0.15538100  1
  Mn  Mn11  1  0.75000000  0.16710000  0.84461900  1
  Mn  Mn12  1  0.75000000  0.45748000  0.35277100  1
  Mn  Mn13  1  0.25000000  0.54252000  0.64722900  1
  Mn  Mn14  1  0.25000000  0.04252000  0.85277100  1
  Mn  Mn15  1  0.75000000  0.95748000  0.14722900  1
  Mn  Mn16  1  0.75000000  0.77636100  0.47803900  1
  Mn  Mn17  1  0.25000000  0.22363900  0.52196100  1
  Mn  Mn18  1  0.25000000  0.72363900  0.97803900  1
  Mn  Mn19  1  0.75000000  0.27636100  0.02196100  1
  Mn  Mn20  1  0.75000000  0.94427600  0.75487900  1
  Mn  Mn21  1  0.25000000  0.05572400  0.24512100  1
  Mn  Mn22  1  0.25000000  0.55572400  0.25487900  1
  Mn  Mn23  1  0.75000000  0.44427600  0.74512100  1
  Mn  Mn24  1  0.75000000  0.94632100  0.54404500  1
  Mn  Mn25  1  0.25000000  0.05367900  0.45595500  1
  Mn  Mn26  1  0.25000000  0.55367900  0.04404500  1
  Mn  Mn27  1  0.75000000  0.44632100  0.95595500  1
  Mn  Mn28  1  0.75000000  0.76702500  0.82655900  1
  Mn  Mn29  1  0.25000000  0.23297500  0.17344100  1
  Mn  Mn30  1  0.25000000  0.73297500  0.32655900  1
  Mn  Mn31  1  0.75000000  0.26702500  0.67344100  1
  Mn  Mn32  1  0.44257200  0.82249800  0.65095700  1
  Mn  Mn33  1  0.55742800  0.17750200  0.34904300  1
  Mn  Mn34  1  0.55742800  0.67750200  0.15095700  1
  Mn  Mn35  1  0.94257200  0.17750200  0.34904300  1
  Mn  Mn36  1  0.44257200  0.32249800  0.84904300  1
  Mn  Mn37  1  0.05742800  0.82249800  0.65095700  1
  Mn  Mn38  1  0.05742800  0.32249800  0.84904300  1
  Mn  Mn39  1  0.94257200  0.67750200  0.15095700  1
  Mn  Mn40  1  0.93898400  0.68236700  0.54073200  1
  Mn  Mn41  1  0.06101600  0.31763300  0.45926800  1
  Mn  Mn42  1  0.06101600  0.81763300  0.04073200  1
  Mn  Mn43  1  0.43898400  0.31763300  0.45926800  1
  Mn  Mn44  1  0.93898400  0.18236700  0.95926800  1
  Mn  Mn45  1  0.56101600  0.68236700  0.54073200  1
  Mn  Mn46  1  0.56101600  0.18236700  0.95926800  1
  Mn  Mn47  1  0.43898400  0.81763300  0.04073200  1
  Al  Al48  1  0.85184800  0.81761800  0.65315200  1
  Al  Al49  1  0.14815200  0.18238200  0.34684800  1
  Al  Al50  1  0.14815200  0.68238200  0.15315200  1
  Al  Al51  1  0.35184800  0.18238200  0.34684800  1
  Al  Al52  1  0.85184800  0.31761800  0.84684800  1
  Al  Al53  1  0.64815200  0.81761800  0.65315200  1
  Al  Al54  1  0.64815200  0.31761800  0.84684800  1
  Al  Al55  1  0.35184800  0.68238200  0.15315200  1
  Al  Al56  1  0.75000000  0.90425300  0.33840200  1
  Al  Al57  1  0.25000000  0.09574700  0.66159800  1
  Al  Al58  1  0.25000000  0.59574700  0.83840200  1
  Al  Al59  1  0.75000000  0.40425300  0.16159800  1
  Al  Al60  1  0.93297300  0.97832100  0.65394900  1
  Al  Al61  1  0.06702700  0.02167900  0.34605100  1
  Al  Al62  1  0.06702700  0.52167900  0.15394900  1
  Al  Al63  1  0.43297300  0.02167900  0.34605100  1
  Al  Al64  1  0.93297300  0.47832100  0.84605100  1
  Al  Al65  1  0.56702700  0.97832100  0.65394900  1
  Al  Al66  1  0.56702700  0.47832100  0.84605100  1
  Al  Al67  1  0.43297300  0.52167900  0.15394900  1
  Al  Al68  1  0.93256600  0.69394600  0.76641700  1
  Al  Al69  1  0.06743400  0.30605400  0.23358300  1
  Al  Al70  1  0.06743400  0.80605400  0.26641700  1
  Al  Al71  1  0.43256600  0.30605400  0.23358300  1
  Al  Al72  1  0.93256600  0.19394600  0.73358300  1
  Al  Al73  1  0.56743400  0.69394600  0.76641700  1
  Al  Al74  1  0.56743400  0.19394600  0.73358300  1
  Al  Al75  1  0.43256600  0.80605400  0.26641700  1
  Al  Al76  1  0.37712100  0.66433800  0.66318600  1
  Al  Al77  1  0.62287900  0.33566200  0.33681400  1
  Al  Al78  1  0.62287900  0.83566200  0.16318600  1
  Al  Al79  1  0.87712100  0.33566200  0.33681400  1
  Al  Al80  1  0.37712100  0.16433800  0.83681400  1
  Al  Al81  1  0.12287900  0.66433800  0.66318600  1
  Al  Al82  1  0.12287900  0.16433800  0.83681400  1
  Al  Al83  1  0.87712100  0.83566200  0.16318600  1
  Al  Al84  1  0.37171100  0.94762900  0.54107900  1
  Al  Al85  1  0.62828900  0.05237100  0.45892100  1
  Al  Al86  1  0.62828900  0.55237100  0.04107900  1
  Al  Al87  1  0.87171100  0.05237100  0.45892100  1
  Al  Al88  1  0.37171100  0.44762900  0.95892100  1
  Al  Al89  1  0.12828900  0.94762900  0.54107900  1
  Al  Al90  1  0.12828900  0.44762900  0.95892100  1
  Al  Al91  1  0.87171100  0.55237100  0.04107900  1
  Al  Al92  1  0.37728400  0.94903300  0.76301000  1
  Al  Al93  1  0.62271600  0.05096700  0.23699000  1
  Al  Al94  1  0.62271600  0.55096700  0.26301000  1
  Al  Al95  1  0.87728400  0.05096700  0.23699000  1
  Al  Al96  1  0.37728400  0.44903300  0.73699000  1
  Al  Al97  1  0.12271600  0.94903300  0.76301000  1
  Al  Al98  1  0.12271600  0.44903300  0.73699000  1
  Al  Al99  1  0.87728400  0.55096700  0.26301000  1
  Al  Al100  1  0.93374100  0.86663800  0.46948300  1
  Al  Al101  1  0.06625900  0.13336200  0.53051700  1
  Al  Al102  1  0.06625900  0.63336200  0.96948300  1
  Al  Al103  1  0.43374100  0.13336200  0.53051700  1
  Al  Al104  1  0.93374100  0.36663800  0.03051700  1
  Al  Al105  1  0.56625900  0.86663800  0.46948300  1
  Al  Al106  1  0.56625900  0.36663800  0.03051700  1
  Al  Al107  1  0.43374100  0.63336200  0.96948300  1
  Al  Al108  1  0.75000000  0.89709200  0.95415600  1
  Al  Al109  1  0.25000000  0.10290800  0.04584400  1
  Al  Al110  1  0.25000000  0.60290800  0.45415600  1
  Al  Al111  1  0.75000000  0.39709200  0.54584400  1
  Al  Al112  1  0.91949300  0.47759900  0.44913500  1
  Al  Al113  1  0.08050700  0.52240100  0.55086500  1
  Al  Al114  1  0.08050700  0.02240100  0.94913500  1
  Al  Al115  1  0.41949300  0.52240100  0.55086500  1
  Al  Al116  1  0.91949300  0.97759900  0.05086500  1
  Al  Al117  1  0.58050700  0.47759900  0.44913500  1
  Al  Al118  1  0.58050700  0.97759900  0.05086500  1
  Al  Al119  1  0.41949300  0.02240100  0.94913500  1
  Al  Al120  1  0.38236600  0.77716600  0.84275500  1
  Al  Al121  1  0.61763400  0.22283400  0.15724500  1
  Al  Al122  1  0.61763400  0.72283400  0.34275500  1
  Al  Al123  1  0.88236600  0.22283400  0.15724500  1
  Al  Al124  1  0.38236600  0.27716600  0.65724500  1
  Al  Al125  1  0.11763400  0.77716600  0.84275500  1
  Al  Al126  1  0.11763400  0.27716600  0.65724500  1
  Al  Al127  1  0.88236600  0.72283400  0.34275500  1
  Al  Al128  1  0.75000000  0.68217500  0.15597500  1
  Al  Al129  1  0.25000000  0.31782500  0.84402500  1
  Al  Al130  1  0.25000000  0.81782500  0.65597500  1
  Al  Al131  1  0.75000000  0.18217500  0.34402500  1
  Al  Al132  1  0.88002400  0.74049400  0.97308100  1
  Al  Al133  1  0.11997600  0.25950600  0.02691900  1
  Al  Al134  1  0.11997600  0.75950600  0.47308100  1
  Al  Al135  1  0.38002400  0.25950600  0.02691900  1
  Al  Al136  1  0.88002400  0.24049400  0.52691900  1
  Al  Al137  1  0.61997600  0.74049400  0.97308100  1
  Al  Al138  1  0.61997600  0.24049400  0.52691900  1
  Al  Al139  1  0.38002400  0.75950600  0.47308100  1
  Al  Al140  1  0.75000000  0.59741500  0.84994500  1
  Al  Al141  1  0.25000000  0.40258500  0.15005500  1
  Al  Al142  1  0.25000000  0.90258500  0.34994500  1
  Al  Al143  1  0.75000000  0.09741500  0.65005500  1
  Al  Al144  1  0.75000000  0.60391800  0.46382300  1
  Al  Al145  1  0.25000000  0.39608200  0.53617700  1
  Al  Al146  1  0.25000000  0.89608200  0.96382300  1
  Al  Al147  1  0.75000000  0.10391800  0.03617700  1
  Al  Al148  1  0.88315400  0.54170900  0.64832200  1
  Al  Al149  1  0.11684600  0.45829100  0.35167800  1
  Al  Al150  1  0.11684600  0.95829100  0.14832200  1
  Al  Al151  1  0.38315400  0.45829100  0.35167800  1
  Al  Al152  1  0.88315400  0.04170900  0.85167800  1
  Al  Al153  1  0.61684600  0.54170900  0.64832200  1
  Al  Al154  1  0.61684600  0.04170900  0.85167800  1
  Al  Al155  1  0.38315400  0.95829100  0.14832200  1
