# generated using pymatgen
data_Mo2N
_symmetry_space_group_name_H-M   'P 1'
_cell_length_a   5.27150509
_cell_length_b   5.27150509
_cell_length_c   5.27150506
_cell_angle_alpha   31.72324603
_cell_angle_beta   31.72324603
_cell_angle_gamma   31.72324081
_symmetry_Int_Tables_number   1
_chemical_formula_structural   Mo2N
_chemical_formula_sum   'Mo2 N1'
_cell_volume   35.96985856
_cell_formula_units_Z   1
loop_
 _symmetry_equiv_pos_site_id
 _symmetry_equiv_pos_as_xyz
  1  'x, y, z'
loop_
 _atom_site_type_symbol
 _atom_site_label
 _atom_site_symmetry_multiplicity
 _atom_site_fract_x
 _atom_site_fract_y
 _atom_site_fract_z
 _atom_site_occupancy
  Mo  Mo0  1  0.75710852  0.75710852  0.75710852  1
  Mo  Mo1  1  0.24289148  0.24289148  0.24289148  1
  N  N2  1  -0.00000000  -0.00000000  -0.00000000  1
