# generated using pymatgen
data_Mo9O26
_symmetry_space_group_name_H-M   'P 1'
_cell_length_a   8.21959501
_cell_length_b   15.43246922
_cell_length_c   17.17315899
_cell_angle_alpha   95.19106668
_cell_angle_beta   89.99840932
_cell_angle_gamma   105.45023306
_symmetry_Int_Tables_number   1
_chemical_formula_structural   Mo9O26
_chemical_formula_sum   'Mo36 O104'
_cell_volume   2090.40015373
_cell_formula_units_Z   4
loop_
 _symmetry_equiv_pos_site_id
 _symmetry_equiv_pos_as_xyz
  1  'x, y, z'
loop_
 _atom_site_type_symbol
 _atom_site_label
 _atom_site_symmetry_multiplicity
 _atom_site_fract_x
 _atom_site_fract_y
 _atom_site_fract_z
 _atom_site_occupancy
  Mo  Mo0  1  0.77072800  0.95247500  0.08342300  1
  Mo  Mo1  1  0.53933000  0.50016700  0.75131100  1
  Mo  Mo2  1  0.65453100  0.72246300  0.16203200  1
  Mo  Mo3  1  0.29225300  0.16514800  0.13487000  1
  Mo  Mo4  1  0.37712300  0.16525700  0.63180800  1
  Mo  Mo5  1  0.46174100  0.49997800  0.24816500  1
  Mo  Mo6  1  0.73058200  0.04684500  0.91799700  1
  Mo  Mo7  1  0.22959600  0.04706700  0.91721600  1
  Mo  Mo8  1  0.03952000  0.49955100  0.74804300  1
  Mo  Mo9  1  0.48390600  0.38775700  0.04363100  1
  Mo  Mo10  1  0.87408000  0.16511100  0.63462700  1
  Mo  Mo11  1  0.43226100  0.28112200  0.34015200  1
  Mo  Mo12  1  0.59449900  0.60998100  0.45391200  1
  Mo  Mo13  1  0.14981400  0.71934100  0.15948000  1
  Mo  Mo14  1  0.12837300  0.83552000  0.36509800  1
  Mo  Mo15  1  0.09572200  0.61272300  0.45715800  1
  Mo  Mo16  1  0.40678600  0.39014100  0.54591000  1
  Mo  Mo17  1  0.81839100  0.04792300  0.41719500  1
  Mo  Mo18  1  0.98474400  0.39060000  0.04658000  1
  Mo  Mo19  1  0.06771400  0.72233700  0.66268000  1
  Mo  Mo20  1  0.18111300  0.95311800  0.58300800  1
  Mo  Mo21  1  0.56999100  0.71947800  0.66003200  1
  Mo  Mo22  1  0.96141000  0.50119100  0.25238700  1
  Mo  Mo23  1  0.27125700  0.95354500  0.08264400  1
  Mo  Mo24  1  0.90611700  0.38841600  0.54322900  1
  Mo  Mo25  1  0.51743300  0.61103900  0.95654000  1
  Mo  Mo26  1  0.93349300  0.27851400  0.33780400  1
  Mo  Mo27  1  0.70760300  0.83461800  0.86582300  1
  Mo  Mo28  1  0.34569800  0.27796600  0.83776100  1
  Mo  Mo29  1  0.79003500  0.16495500  0.13185700  1
  Mo  Mo30  1  0.21227100  0.83500200  0.86881500  1
  Mo  Mo31  1  0.62391200  0.83552700  0.36835300  1
  Mo  Mo32  1  0.85067100  0.28073700  0.84022500  1
  Mo  Mo33  1  0.68308400  0.95308900  0.58247000  1
  Mo  Mo34  1  0.01608200  0.60963000  0.95355300  1
  Mo  Mo35  1  0.31729700  0.04786800  0.41817000  1
  O  O36  1  0.69050300  0.37629300  0.53119800  1
  O  O37  1  0.84411300  0.21214000  0.73372100  1
  O  O38  1  0.28017100  0.07930200  0.53040500  1
  O  O39  1  0.50275300  0.55956800  0.85377600  1
  O  O40  1  0.93555700  0.32814800  0.93899500  1
  O  O41  1  0.04965700  0.61496100  0.70502200  1
  O  O42  1  0.36879300  0.21267600  0.23400200  1
  O  O43  1  0.72088200  0.92067900  0.96946800  1
  O  O44  1  0.83608800  0.21357800  0.23288700  1
  O  O45  1  0.05864400  0.55987500  0.35419200  1
  O  O46  1  0.33926900  0.15504300  0.37835600  1
  O  O47  1  0.72277000  0.96119800  0.83387700  1
  O  O48  1  0.47171900  0.95487000  0.57582500  1
  O  O49  1  0.75162100  0.50427300  0.76249700  1
  O  O50  1  0.32642200  0.15333400  0.87751900  1
  O  O51  1  0.24673900  0.49400000  0.73641400  1
  O  O52  1  0.68756600  0.37614300  0.03128300  1
  O  O53  1  0.60796200  0.67153000  0.56135800  1
  O  O54  1  0.05585900  0.56082100  0.85370000  1
  O  O55  1  0.37509700  0.26710500  0.08435300  1
  O  O56  1  0.98161200  0.94978200  0.08389500  1
  O  O57  1  0.44754700  0.38623600  0.29441700  1
  O  O58  1  0.86419200  0.73472400  0.67470500  1
  O  O59  1  0.64436700  0.28130700  0.34646100  1
  O  O60  1  0.56822400  0.61606100  0.20597900  1
  O  O61  1  0.42628000  0.84083300  0.87880100  1
  O  O62  1  0.06287900  0.67080800  0.06141000  1
  O  O63  1  0.94421300  0.32757600  0.43989100  1
  O  O64  1  0.55549300  0.61454000  0.70588300  1
  O  O65  1  0.94272500  0.43973500  0.64601700  1
  O  O66  1  0.11132400  0.73387300  0.41585500  1
  O  O67  1  0.03138000  0.04959300  0.41669200  1
  O  O68  1  0.77258700  0.03948900  0.16613800  1
  O  O69  1  0.61969200  0.73489000  0.41876600  1
  O  O70  1  0.50539800  0.56140300  0.35468300  1
  O  O71  1  0.12898500  0.26404500  0.82665200  1
  O  O72  1  0.79845500  0.07815400  0.03060000  1
  O  O73  1  0.87130000  0.73697500  0.17322900  1
  O  O74  1  0.20496200  0.92193400  0.97002400  1
  O  O75  1  0.05669500  0.67438800  0.56038000  1
  O  O76  1  0.58484400  0.15859000  0.62119100  1
  O  O77  1  0.71886200  0.92208100  0.46977900  1
  O  O78  1  0.36076500  0.71759200  0.15242700  1
  O  O79  1  0.27857900  0.07903800  0.03142400  1
  O  O80  1  0.38452000  0.32659400  0.93970300  1
  O  O81  1  0.31316600  0.62210500  0.96886600  1
  O  O82  1  0.51783100  0.04531700  0.92579500  1
  O  O83  1  0.63047600  0.78794200  0.76656800  1
  O  O84  1  0.92109200  0.83730900  0.86196100  1
  O  O85  1  0.20080100  0.92179600  0.46928200  1
  O  O86  1  0.50071200  0.44115900  0.14650600  1
  O  O87  1  0.99926800  0.50036000  0.50055400  1
  O  O88  1  0.48470200  0.95648800  0.07582600  1
  O  O89  1  0.31045600  0.62307900  0.47001100  1
  O  O90  1  0.89242600  0.26670600  0.58356700  1
  O  O91  1  0.75426000  0.50687200  0.26392300  1
  O  O92  1  0.24891800  0.49437800  0.23650600  1
  O  O93  1  0.80424600  0.60744000  0.44441000  1
  O  O94  1  0.05945800  0.61536200  0.20662200  1
  O  O95  1  0.96831500  0.95187700  0.58240100  1
  O  O96  1  0.94496500  0.44007300  0.14578600  1
  O  O97  1  0.43093100  0.38471500  0.79406000  1
  O  O98  1  0.27686000  0.03862500  0.16702400  1
  O  O99  1  0.94054700  0.38544100  0.79419300  1
  O  O100  1  0.35776700  0.71883400  0.65329200  1
  O  O101  1  0.63895800  0.28129000  0.84634200  1
  O  O102  1  0.80110200  0.07889300  0.53129400  1
  O  O103  1  0.08473900  0.16241700  0.63862800  1
  O  O104  1  0.38126200  0.26617800  0.58205600  1
  O  O105  1  0.52851500  0.04623000  0.42598200  1
  O  O106  1  0.76241800  0.03839800  0.66666800  1
  O  O107  1  0.62389700  0.73258700  0.91637900  1
  O  O108  1  0.23918000  0.96238000  0.33389400  1
  O  O109  1  0.57611600  0.15962300  0.12252900  1
  O  O110  1  0.22939800  0.96029200  0.83442300  1
  O  O111  1  0.91730000  0.83791400  0.36146200  1
  O  O112  1  0.26677300  0.04007200  0.66571300  1
  O  O113  1  0.80318900  0.60541400  0.94425100  1
  O  O114  1  0.00073300  0.49945000  0.99967400  1
  O  O115  1  0.50326400  0.50036400  0.49961500  1
  O  O116  1  0.39509800  0.32835700  0.43881100  1
  O  O117  1  0.38273700  0.21335300  0.73324300  1
  O  O118  1  0.19766500  0.39408600  0.55420700  1
  O  O119  1  0.88718500  0.26571700  0.08166800  1
  O  O120  1  0.61906600  0.78732000  0.26710700  1
  O  O121  1  0.81604200  0.15405700  0.87830000  1
  O  O122  1  0.41616400  0.84195700  0.37847200  1
  O  O123  1  0.11517400  0.73452200  0.91918800  1
  O  O124  1  0.95127300  0.38520700  0.29453200  1
  O  O125  1  0.66247700  0.84548700  0.62150400  1
  O  O126  1  0.19766900  0.39442300  0.05583800  1
  O  O127  1  0.66966600  0.84629800  0.12280000  1
  O  O128  1  0.17166500  0.84723500  0.62374900  1
  O  O129  1  0.50086500  0.49991700  0.99978800  1
  O  O130  1  0.73249400  0.96105400  0.33447700  1
  O  O131  1  0.18649000  0.84526900  0.12059300  1
  O  O132  1  0.13736000  0.26626000  0.32723100  1
  O  O133  1  0.49462800  0.43986500  0.64557500  1
  O  O134  1  0.01742200  0.04739600  0.91712100  1
  O  O135  1  0.07840000  0.16169600  0.13851200  1
  O  O136  1  0.61757100  0.67277300  0.06004400  1
  O  O137  1  0.15839900  0.78923600  0.26565100  1
  O  O138  1  0.16790100  0.78597100  0.76776500  1
  O  O139  1  0.82677600  0.15436600  0.37761900  1
