# generated using pymatgen
data_MoO2
_symmetry_space_group_name_H-M   'P 1'
_cell_length_a   6.43488416
_cell_length_b   6.43488433
_cell_length_c   6.43488361
_cell_angle_alpha   59.99999677
_cell_angle_beta   59.99999590
_cell_angle_gamma   60.00000217
_symmetry_Int_Tables_number   1
_chemical_formula_structural   MoO2
_chemical_formula_sum   'Mo4 O8'
_cell_volume   188.41139264
_cell_formula_units_Z   4
loop_
 _symmetry_equiv_pos_site_id
 _symmetry_equiv_pos_as_xyz
  1  'x, y, z'
loop_
 _atom_site_type_symbol
 _atom_site_label
 _atom_site_symmetry_multiplicity
 _atom_site_fract_x
 _atom_site_fract_y
 _atom_site_fract_z
 _atom_site_occupancy
  O  O0  1  0.72778449  0.72778355  0.31664795  1
  O  O1  1  0.72778449  0.72778355  0.72778461  1
  O  O2  1  0.27221596  0.27221685  0.68335112  1
  O  O3  1  0.27221778  0.68335109  0.27221642  1
  O  O4  1  0.27221596  0.27221685  0.27221616  1
  O  O5  1  0.68335162  0.27221685  0.27221491  1
  O  O6  1  0.31664884  0.72778355  0.72778586  1
  O  O7  1  0.72778534  0.31664722  0.72778407  1
  Mo  Mo8  1  0.49999889  0.50000124  0.50000053  1
  Mo  Mo9  1  0.50000143  1.00000000  0.50000019  1
  Mo  Mo10  1  0.00000141  0.50000124  0.49999957  1
  Mo  Mo11  1  0.49999889  0.50000124  0.99999933  1
