# generated using pymatgen
data_MoCl5
_symmetry_space_group_name_H-M   'P 1'
_cell_length_a   6.18908574
_cell_length_b   12.55544205
_cell_length_c   12.55533391
_cell_angle_alpha   90.87153667
_cell_angle_beta   94.20875521
_cell_angle_gamma   94.20994804
_symmetry_Int_Tables_number   1
_chemical_formula_structural   MoCl5
_chemical_formula_sum   'Mo6 Cl30'
_cell_volume   970.16911380
_cell_formula_units_Z   6
loop_
 _symmetry_equiv_pos_site_id
 _symmetry_equiv_pos_as_xyz
  1  'x, y, z'
loop_
 _atom_site_type_symbol
 _atom_site_label
 _atom_site_symmetry_multiplicity
 _atom_site_fract_x
 _atom_site_fract_y
 _atom_site_fract_z
 _atom_site_occupancy
  Mo  Mo0  1  0.99998270  0.89276789  0.10725601  1
  Mo  Mo1  1  0.00003253  0.10725984  0.89275871  1
  Mo  Mo2  1  0.43388586  0.44023713  0.22605016  1
  Mo  Mo3  1  0.56609787  0.55975088  0.77393978  1
  Mo  Mo4  1  0.56610042  0.77394555  0.55974926  1
  Mo  Mo5  1  0.43389159  0.22604029  0.44024088  1
  Cl  Cl6  1  0.83028345  0.68226447  0.49447142  1
  Cl  Cl7  1  0.75293728  0.74162501  0.74162355  1
  Cl  Cl8  1  0.68327952  0.01849334  0.83132790  1
  Cl  Cl9  1  0.62034040  0.40812109  0.40813304  1
  Cl  Cl10  1  0.37816663  0.39923898  0.78366622  1
  Cl  Cl11  1  0.24706007  0.25835531  0.25836639  1
  Cl  Cl12  1  0.30201092  0.65194580  0.83874304  1
  Cl  Cl13  1  0.13492342  0.92322692  0.92322394  1
  Cl  Cl14  1  0.69800243  0.16124259  0.34803129  1
  Cl  Cl15  1  0.37815380  0.78367382  0.39924240  1
  Cl  Cl16  1  0.86630891  0.26990894  0.88603616  1
  Cl  Cl17  1  0.31676869  0.16868285  0.98152947  1
  Cl  Cl18  1  0.24671252  0.44900605  0.06525602  1
  Cl  Cl19  1  0.31674466  0.98152426  0.16867650  1
  Cl  Cl20  1  0.62186143  0.21632953  0.60075570  1
  Cl  Cl21  1  0.62185444  0.60074708  0.21633102  1
  Cl  Cl22  1  0.24672286  0.06524426  0.44902007  1
  Cl  Cl23  1  0.68323960  0.83134308  0.01848065  1
  Cl  Cl24  1  0.69798799  0.34802328  0.16124923  1
  Cl  Cl25  1  0.13370464  0.73011877  0.11399341  1
  Cl  Cl26  1  0.16968692  0.31772986  0.50551710  1
  Cl  Cl27  1  0.30201870  0.83874429  0.65195498  1
  Cl  Cl28  1  0.75325985  0.55098028  0.93473129  1
  Cl  Cl29  1  0.86625077  0.88605585  0.26990186  1
  Cl  Cl30  1  0.75327768  0.93473205  0.55097778  1
  Cl  Cl31  1  0.37962655  0.59186651  0.59186047  1
  Cl  Cl32  1  0.83028408  0.49448210  0.68225858  1
  Cl  Cl33  1  0.13376828  0.11399117  0.73011870  1
  Cl  Cl34  1  0.86509261  0.07679497  0.07678526  1
  Cl  Cl35  1  0.16968394  0.50550490  0.31774176  1
