# generated using pymatgen
data_MoCl5
_symmetry_space_group_name_H-M   'P 1'
_cell_length_a   6.15532714
_cell_length_b   11.68798347
_cell_length_c   17.85744047
_cell_angle_alpha   89.99934553
_cell_angle_beta   90.00121595
_cell_angle_gamma   89.99609404
_symmetry_Int_Tables_number   1
_chemical_formula_structural   MoCl5
_chemical_formula_sum   'Mo8 Cl40'
_cell_volume   1284.72429893
_cell_formula_units_Z   8
loop_
 _symmetry_equiv_pos_site_id
 _symmetry_equiv_pos_as_xyz
  1  'x, y, z'
loop_
 _atom_site_type_symbol
 _atom_site_label
 _atom_site_symmetry_multiplicity
 _atom_site_fract_x
 _atom_site_fract_y
 _atom_site_fract_z
 _atom_site_occupancy
  Mo  Mo0  1  0.91062957  0.87597270  0.85736424  1
  Mo  Mo1  1  0.58936066  0.37599066  0.85737026  1
  Mo  Mo2  1  0.41063934  0.62400934  0.14262974  1
  Mo  Mo3  1  0.08937043  0.12402730  0.14263576  1
  Mo  Mo4  1  0.08936759  0.12402346  0.35735518  1
  Mo  Mo5  1  0.58936380  0.37599642  0.64262829  1
  Mo  Mo6  1  0.91063241  0.87597654  0.64264482  1
  Mo  Mo7  1  0.41063620  0.62400358  0.35737171  1
  Cl  Cl8  1  0.62040568  0.75913539  0.65574034  1
  Cl  Cl9  1  0.92360870  0.23761146  0.05773706  1
  Cl  Cl10  1  0.12042025  0.74081905  0.15574548  1
  Cl  Cl11  1  0.37956041  0.24085627  0.15573081  1
  Cl  Cl12  1  0.19976997  0.99380264  0.84372026  1
  Cl  Cl13  1  0.25350614  0.01031835  0.05732583  1
  Cl  Cl14  1  0.07639130  0.76238854  0.94226294  1
  Cl  Cl15  1  0.80019224  0.00618174  0.34370426  1
  Cl  Cl16  1  0.30018749  0.49382835  0.84370416  1
  Cl  Cl17  1  0.07641282  0.76238142  0.55774370  1
  Cl  Cl18  1  0.92580824  0.23714394  0.24999213  1
  Cl  Cl19  1  0.42359621  0.26242084  0.94224327  1
  Cl  Cl20  1  0.74578891  0.98828548  0.75000746  1
  Cl  Cl21  1  0.75347580  0.48968986  0.55733080  1
  Cl  Cl22  1  0.37959432  0.24086461  0.34425966  1
  Cl  Cl23  1  0.25421109  0.01171452  0.24999254  1
  Cl  Cl24  1  0.75418493  0.48833142  0.74999737  1
  Cl  Cl25  1  0.74649094  0.98969289  0.55732649  1
  Cl  Cl26  1  0.24652199  0.51031479  0.05731994  1
  Cl  Cl27  1  0.42580943  0.26288439  0.74999519  1
  Cl  Cl28  1  0.24581507  0.51166858  0.25000263  1
  Cl  Cl29  1  0.57419057  0.73711561  0.25000481  1
  Cl  Cl30  1  0.87957975  0.25918095  0.84425452  1
  Cl  Cl31  1  0.87954976  0.25919766  0.65574403  1
  Cl  Cl32  1  0.74649386  0.98968165  0.94267417  1
  Cl  Cl33  1  0.25350906  0.01030811  0.44267351  1
  Cl  Cl34  1  0.92358718  0.23761858  0.44225630  1
  Cl  Cl35  1  0.75347801  0.48968421  0.94268006  1
  Cl  Cl36  1  0.80023003  0.00619736  0.15627974  1
  Cl  Cl37  1  0.07419176  0.76285606  0.75000787  1
  Cl  Cl38  1  0.42360731  0.26243911  0.55775603  1
  Cl  Cl39  1  0.12045024  0.74080234  0.34425597  1
  Cl  Cl40  1  0.24652420  0.51031014  0.44266920  1
  Cl  Cl41  1  0.57640379  0.73757916  0.05775673  1
  Cl  Cl42  1  0.57639269  0.73756089  0.44224397  1
  Cl  Cl43  1  0.62043959  0.75914373  0.84426919  1
  Cl  Cl44  1  0.19980776  0.99381826  0.65629574  1
  Cl  Cl45  1  0.69977506  0.50617517  0.34370976  1
  Cl  Cl46  1  0.30022494  0.49382483  0.65629024  1
  Cl  Cl47  1  0.69981251  0.50617165  0.15629584  1
