# generated using pymatgen
data_NaCl7
_symmetry_space_group_name_H-M   'P 1'
_cell_length_a   5.94494117
_cell_length_b   5.94494117
_cell_length_c   5.94494117
_cell_angle_alpha   90.00000000
_cell_angle_beta   90.00000000
_cell_angle_gamma   90.00000000
_symmetry_Int_Tables_number   1
_chemical_formula_structural   NaCl7
_chemical_formula_sum   'Na1 Cl7'
_cell_volume   210.10804600
_cell_formula_units_Z   1
loop_
 _symmetry_equiv_pos_site_id
 _symmetry_equiv_pos_as_xyz
  1  'x, y, z'
loop_
 _atom_site_type_symbol
 _atom_site_label
 _atom_site_symmetry_multiplicity
 _atom_site_fract_x
 _atom_site_fract_y
 _atom_site_fract_z
 _atom_site_occupancy
  Na  Na0  1  0.00000000  -0.00000000  -0.00000000  1
  Cl  Cl1  1  0.50000000  0.50000000  0.50000000  1
  Cl  Cl2  1  0.00000000  0.17109727  0.50000000  1
  Cl  Cl3  1  0.00000000  0.82890273  0.50000000  1
  Cl  Cl4  1  0.50000000  -0.00000000  0.17109727  1
  Cl  Cl5  1  0.50000000  -0.00000000  0.82890273  1
  Cl  Cl6  1  0.17109727  0.50000000  0.00000000  1
  Cl  Cl7  1  0.82890273  0.50000000  -0.00000000  1
