# generated using pymatgen
data_NaSi68
_symmetry_space_group_name_H-M   'P 1'
_cell_length_a   10.41295525
_cell_length_b   10.41295525
_cell_length_c   18.03683797
_cell_angle_alpha   73.22237034
_cell_angle_beta   90.00000000
_cell_angle_gamma   120.00000000
_symmetry_Int_Tables_number   1
_chemical_formula_structural   NaSi68
_chemical_formula_sum   'Na1 Si68'
_cell_volume   1596.85690263
_cell_formula_units_Z   1
loop_
 _symmetry_equiv_pos_site_id
 _symmetry_equiv_pos_as_xyz
  1  'x, y, z'
loop_
 _atom_site_type_symbol
 _atom_site_label
 _atom_site_symmetry_multiplicity
 _atom_site_fract_x
 _atom_site_fract_y
 _atom_site_fract_z
 _atom_site_occupancy
  Na  Na0  1  0.93749473  0.37498946  0.18751581  1
  Si  Si1  1  0.12330435  0.37056992  0.38216450  1
  Si  Si2  1  0.62330117  0.37061967  0.88206184  1
  Si  Si3  1  0.94413621  0.76392382  0.18530532  1
  Si  Si4  1  0.44404160  0.76441745  0.68525320  1
  Si  Si5  1  0.94413621  0.99490707  0.18530532  1
  Si  Si6  1  0.44404160  0.99437095  0.68525320  1
  Si  Si7  1  0.23854924  0.37060092  0.49734740  1
  Si  Si8  1  0.73831215  0.37052967  0.99725282  1
  Si  Si9  1  0.31978761  0.37055847  0.18530532  1
  Si  Si10  1  0.82037585  0.37070520  0.68525320  1
  Si  Si11  1  0.74726558  0.99453115  0.38216450  1
  Si  Si12  1  0.24731849  0.99463699  0.88206184  1
  Si  Si13  1  0.63205168  0.76410336  0.49734740  1
  Si  Si14  1  0.13221752  0.76443504  0.99725282  1
  Si  Si15  1  0.55077086  0.37055847  0.18530532  1
  Si  Si16  1  0.05032935  0.37070520  0.68525320  1
  Si  Si17  1  0.31978761  0.76392382  0.18530532  1
  Si  Si18  1  0.82037585  0.76441745  0.68525320  1
  Si  Si19  1  0.63205168  0.37060092  0.49734740  1
  Si  Si20  1  0.13221752  0.37052967  0.99725282  1
  Si  Si21  1  0.74726558  0.37056992  0.38216450  1
  Si  Si22  1  0.24731849  0.37061967  0.88206184  1
  Si  Si23  1  0.55077086  0.99490707  0.18530532  1
  Si  Si24  1  0.05032935  0.99437095  0.68525320  1
  Si  Si25  1  0.37620718  0.62917734  0.11785250  1
  Si  Si26  1  0.87679656  0.62950077  0.61779502  1
  Si  Si27  1  0.55617520  0.23574285  0.31462345  1
  Si  Si28  1  0.05586448  0.23561004  0.81472586  1
  Si  Si29  1  0.55617520  0.00580890  0.31462345  1
  Si  Si30  1  0.05586448  0.00552859  0.81472586  1
  Si  Si31  1  0.26147440  0.62929284  0.00288873  1
  Si  Si32  1  0.76165153  0.62942633  0.50279887  1
  Si  Si33  1  0.17956765  0.62920134  0.31462345  1
  Si  Si34  1  0.67974555  0.62940966  0.81472586  1
  Si  Si35  1  0.75297016  0.00594032  0.11785250  1
  Si  Si36  1  0.25270421  0.00540842  0.61779502  1
  Si  Si37  1  0.86781844  0.23563688  0.00288873  1
  Si  Si38  1  0.36777480  0.23554960  0.50279887  1
  Si  Si39  1  0.94963370  0.62920134  0.31462345  1
  Si  Si40  1  0.44966411  0.62940966  0.81472586  1
  Si  Si41  1  0.17956765  0.23574285  0.31462345  1
  Si  Si42  1  0.67974555  0.23561004  0.81472586  1
  Si  Si43  1  0.86781844  0.62929284  0.00288873  1
  Si  Si44  1  0.36777480  0.62942633  0.50279887  1
  Si  Si45  1  0.75297016  0.62917734  0.11785250  1
  Si  Si46  1  0.25270421  0.62950077  0.61779502  1
  Si  Si47  1  0.94963370  0.00580890  0.31462345  1
  Si  Si48  1  0.44966411  0.00552859  0.81472586  1
  Si  Si49  1  0.31253101  0.12506202  0.06240697  1
  Si  Si50  1  0.81248145  0.12496289  0.56255566  1
  Si  Si51  1  0.18749227  0.87498454  0.43752319  1
  Si  Si52  1  0.68748773  0.87497545  0.93753682  1
  Si  Si53  1  0.85865154  0.21730308  0.42404539  1
  Si  Si54  1  0.35858957  0.21717915  0.92423128  1
  Si  Si55  1  0.17405151  0.84810303  0.10865462  1
  Si  Si56  1  0.67423816  0.84847632  0.60857968  1
  Si  Si57  1  0.17405151  0.21729386  0.10865462  1
  Si  Si58  1  0.67423816  0.21718216  0.60857968  1
  Si  Si59  1  0.54324235  0.21729386  0.10865462  1
  Si  Si60  1  0.04294400  0.21718216  0.60857968  1
  Si  Si61  1  0.64147542  0.78295084  0.07557373  1
  Si  Si62  1  0.14139067  0.78278134  0.57582798  1
  Si  Si63  1  0.32565797  0.15131594  0.39158942  1
  Si  Si64  1  0.82572320  0.15144639  0.89129331  1
  Si  Si65  1  0.32565797  0.78275261  0.39158942  1
  Si  Si66  1  0.82572320  0.78298349  0.89129331  1
  Si  Si67  1  0.95709464  0.78275261  0.39158942  1
  Si  Si68  1  0.45726029  0.78298349  0.89129331  1
