# generated using pymatgen
data_Na3Hg2
_symmetry_space_group_name_H-M   'P 1'
_cell_length_a   7.18462977
_cell_length_b   8.53375105
_cell_length_c   8.53375105
_cell_angle_alpha   90.00000000
_cell_angle_beta   90.00000000
_cell_angle_gamma   90.00000000
_symmetry_Int_Tables_number   1
_chemical_formula_structural   Na3Hg2
_chemical_formula_sum   'Na12 Hg8'
_cell_volume   523.21999471
_cell_formula_units_Z   4
loop_
 _symmetry_equiv_pos_site_id
 _symmetry_equiv_pos_as_xyz
  1  'x, y, z'
loop_
 _atom_site_type_symbol
 _atom_site_label
 _atom_site_symmetry_multiplicity
 _atom_site_fract_x
 _atom_site_fract_y
 _atom_site_fract_z
 _atom_site_occupancy
  Na  Na0  1  -0.00000000  0.63152734  0.63152734  1
  Na  Na1  1  -0.00000000  0.81620505  0.18379495  1
  Na  Na2  1  0.00000000  0.36847266  0.36847266  1
  Na  Na3  1  0.50000000  0.13152734  0.86847266  1
  Na  Na4  1  -0.00000000  0.50000000  -0.00000000  1
  Na  Na5  1  0.50000000  0.50000000  -0.00000000  1
  Na  Na6  1  0.50000000  0.68379495  0.68379495  1
  Na  Na7  1  0.00000000  0.00000000  0.50000000  1
  Na  Na8  1  0.50000000  0.86847266  0.13152734  1
  Na  Na9  1  0.50000000  0.31620505  0.31620505  1
  Na  Na10  1  0.00000000  0.18379495  0.81620505  1
  Na  Na11  1  0.50000000  0.00000000  0.50000000  1
  Hg  Hg12  1  0.79863766  0.13789012  0.13789012  1
  Hg  Hg13  1  0.70136234  0.36210988  0.63789012  1
  Hg  Hg14  1  0.20136234  0.13789012  0.13789012  1
  Hg  Hg15  1  0.29863766  0.36210988  0.63789012  1
  Hg  Hg16  1  0.20136234  0.86210988  0.86210988  1
  Hg  Hg17  1  0.29863766  0.63789012  0.36210988  1
  Hg  Hg18  1  0.70136234  0.63789012  0.36210988  1
  Hg  Hg19  1  0.79863766  0.86210988  0.86210988  1
