# generated using pymatgen
data_Na7Si51
_symmetry_space_group_name_H-M   'P 1'
_cell_length_a   10.43649898
_cell_length_b   10.43490769
_cell_length_c   25.61032544
_cell_angle_alpha   89.98154088
_cell_angle_beta   90.00000942
_cell_angle_gamma   120.00519756
_symmetry_Int_Tables_number   1
_chemical_formula_structural   Na7Si51
_chemical_formula_sum   'Na14 Si102'
_cell_volume   2415.27394835
_cell_formula_units_Z   2
loop_
 _symmetry_equiv_pos_site_id
 _symmetry_equiv_pos_as_xyz
  1  'x, y, z'
loop_
 _atom_site_type_symbol
 _atom_site_label
 _atom_site_symmetry_multiplicity
 _atom_site_fract_x
 _atom_site_fract_y
 _atom_site_fract_z
 _atom_site_occupancy
  Na  Na0  1  0.33334576  0.16668328  0.79165376  1
  Na  Na1  1  0.00001119  0.50001103  0.12496866  1
  Na  Na2  1  0.66664878  0.83330604  0.45833447  1
  Na  Na3  1  0.99998724  0.49998372  0.87501324  1
  Na  Na4  1  0.66668522  0.83335996  0.20833153  1
  Na  Na5  1  0.33332181  0.16665597  0.54169834  1
  Na  Na6  1  0.83334121  0.16668879  0.66665536  1
  Na  Na7  1  0.49999179  0.49997821  0.00001164  1
  Na  Na8  1  0.50000504  0.99998062  0.00002630  1
  Na  Na9  1  0.16666700  0.33333300  0.33333300  1
  Na  Na10  1  0.83332796  0.66668638  0.66664070  1
  Na  Na11  1  0.99997492  0.99998410  0.00002336  1
  Na  Na12  1  0.66666700  0.33333300  0.33333300  1
  Na  Na13  1  0.33335808  0.66668290  0.66664364  1
  Si  Si14  1  0.66665642  0.83331103  0.70829960  1
  Si  Si15  1  0.33333404  0.16666763  0.04162325  1
  Si  Si16  1  0.00043922  0.50087891  0.37492803  1
  Si  Si17  1  0.66667758  0.83335497  0.95836640  1
  Si  Si18  1  0.33289378  0.16578809  0.29173897  1
  Si  Si19  1  -0.00000104  0.49999937  0.62504375  1
  Si  Si20  1  0.58558795  0.29279175  0.92099345  1
  Si  Si21  1  0.25221718  0.62628200  0.25440511  1
  Si  Si22  1  0.91879740  0.95936280  0.58771628  1
  Si  Si23  1  0.33828173  0.55397395  0.79046521  1
  Si  Si24  1  0.00479369  0.88714131  0.12400255  1
  Si  Si25  1  0.67126795  0.22019299  0.45705949  1
  Si  Si26  1  0.33828982  0.78429120  0.79047891  1
  Si  Si27  1  0.00487163  0.11745237  0.12378024  1
  Si  Si28  1  0.67225086  0.45157466  0.45698731  1
  Si  Si29  1  0.73730670  0.36870593  0.99820233  1
  Si  Si30  1  0.40384358  0.70207893  0.33152404  1
  Si  Si31  1  0.07047544  0.03532871  0.66486954  1
  Si  Si32  1  0.71577028  0.16164672  0.79046893  1
  Si  Si33  1  0.38237707  0.49512079  0.12378548  1
  Si  Si34  1  0.04920378  0.82815960  0.45696107  1
  Si  Si35  1  0.20725999  0.91452072  0.92102020  1
  Si  Si36  1  0.87425731  0.24851601  0.25436779  1
  Si  Si37  1  0.54058527  0.58117168  0.58772189  1
  Si  Si38  1  0.13136450  0.76273057  0.99827611  1
  Si  Si39  1  0.79753104  0.09506382  0.33154663  1
  Si  Si40  1  0.46474205  0.42948308  0.66488230  1
  Si  Si41  1  0.94587633  0.16164666  0.79046890  1
  Si  Si42  1  0.61274598  0.49512103  0.12378611  1
  Si  Si43  1  0.27895532  0.82816057  0.45696092  1
  Si  Si44  1  0.71569260  0.55397459  0.79046533  1
  Si  Si45  1  0.38234791  0.88714126  0.12400267  1
  Si  Si46  1  0.04892426  0.22019347  0.45705950  1
  Si  Si47  1  0.13139844  0.36870579  0.99820236  1
  Si  Si48  1  0.79823316  0.70207806  0.33152425  1
  Si  Si49  1  0.46485487  0.03532819  0.66486989  1
  Si  Si50  1  0.20720355  0.29279175  0.92099276  1
  Si  Si51  1  0.87406497  0.62628194  0.25440504  1
  Si  Si52  1  0.54056507  0.95936280  0.58771615  1
  Si  Si53  1  0.94600140  0.78429206  0.79047898  1
  Si  Si54  1  0.61258224  0.11745344  0.12378035  1
  Si  Si55  1  0.27932226  0.45157479  0.45698727  1
  Si  Si56  1  0.74774605  0.37387425  0.74567255  1
  Si  Si57  1  0.41453560  0.70730420  0.07895072  1
  Si  Si58  1  0.08111582  0.04038500  0.41226189  1
  Si  Si59  1  0.99505127  0.11269305  0.87620179  1
  Si  Si60  1  0.66206505  0.44647401  0.20960751  1
  Si  Si61  1  0.32854031  0.77952469  0.54266345  1
  Si  Si62  1  0.99504318  0.88237580  0.87618809  1
  Si  Si63  1  0.66108214  0.21509234  0.20967969  1
  Si  Si64  1  0.32846237  0.54921363  0.54288576  1
  Si  Si65  1  0.59602630  0.29796107  0.66846467  1
  Si  Si66  1  0.26285856  0.63133729  0.00179646  1
  Si  Si67  1  0.92948942  0.96458807  0.33514296  1
  Si  Si68  1  0.61756272  0.50502028  0.87619807  1
  Si  Si69  1  0.28412922  0.83850740  0.20970593  1
  Si  Si70  1  0.95095693  0.17154521  0.54288052  1
  Si  Si71  1  0.12607401  0.75214528  0.74564580  1
  Si  Si72  1  0.79274773  0.08549532  0.07894511  1
  Si  Si73  1  0.45907569  0.41815099  0.41229921  1
  Si  Si74  1  0.20196850  0.90393643  0.66839089  1
  Si  Si75  1  0.86859195  0.23718292  0.00178370  1
  Si  Si76  1  0.53580196  0.57160318  0.33512037  1
  Si  Si77  1  0.38745667  0.50502034  0.87619810  1
  Si  Si78  1  0.05437768  0.83850643  0.20970608  1
  Si  Si79  1  0.72058802  0.17154497  0.54287989  1
  Si  Si80  1  0.61764040  0.11269241  0.87620167  1
  Si  Si81  1  0.28440874  0.44647353  0.20960750  1
  Si  Si82  1  0.95098609  0.77952474  0.54266333  1
  Si  Si83  1  0.20193456  0.29796121  0.66846464  1
  Si  Si84  1  0.86847913  0.63133781  0.00179611  1
  Si  Si85  1  0.53509984  0.96458894  0.33514275  1
  Si  Si86  1  0.12613045  0.37387425  0.74567324  1
  Si  Si87  1  0.79276793  0.70730420  0.07895085  1
  Si  Si88  1  0.45926803  0.04038506  0.41226196  1
  Si  Si89  1  0.38733160  0.88237494  0.87618802  1
  Si  Si90  1  0.05401074  0.21509221  0.20967973  1
  Si  Si91  1  0.72075176  0.54921256  0.54288565  1
  Si  Si92  1  0.33335488  0.16671205  0.94901067  1
  Si  Si93  1  0.00023620  0.50047356  0.28244799  1
  Si  Si94  1  0.66666757  0.83333415  0.61562711  1
  Si  Si95  1  0.54199537  0.58399070  0.73954924  1
  Si  Si96  1  0.20865036  0.91730037  0.07291739  1
  Si  Si97  1  0.87584311  0.25168726  0.40616912  1
  Si  Si98  1  0.54209963  0.95814071  0.73958250  1
  Si  Si99  1  0.20866350  0.29152384  0.07293186  1
  Si  Si100  1  0.87595908  0.62492869  0.40617382  1
  Si  Si101  1  0.91604028  0.95814114  0.73958278  1
  Si  Si102  1  0.58286173  0.29152394  0.07293183  1
  Si  Si103  1  0.24896944  0.62492897  0.40617387  1
  Si  Si104  1  0.99997812  0.49995495  0.71765633  1
  Si  Si105  1  0.66666643  0.83333185  0.05103889  1
  Si  Si106  1  0.33309680  0.16619344  0.38421901  1
  Si  Si107  1  0.79133763  0.08267630  0.92711776  1
  Si  Si108  1  0.45748989  0.41497974  0.26049788  1
  Si  Si109  1  0.12468364  0.74936563  0.59374861  1
  Si  Si110  1  0.79123337  0.70852629  0.92708450  1
  Si  Si111  1  0.45737392  0.04173831  0.26049318  1
  Si  Si112  1  0.12467050  0.37514216  0.59373414  1
  Si  Si113  1  0.41729272  0.70852586  0.92708422  1
  Si  Si114  1  0.08436356  0.04173803  0.26049313  1
  Si  Si115  1  0.75047227  0.37514206  0.59373417  1
