# generated using pymatgen
data_NaSn
_symmetry_space_group_name_H-M   'P 1'
_cell_length_a   10.42725127
_cell_length_b   10.42725148
_cell_length_c   11.40623377
_cell_angle_alpha   117.19920002
_cell_angle_beta   117.19920399
_cell_angle_gamma   90.00000151
_symmetry_Int_Tables_number   1
_chemical_formula_structural   NaSn
_chemical_formula_sum   'Na16 Sn16'
_cell_volume   946.23229697
_cell_formula_units_Z   16
loop_
 _symmetry_equiv_pos_site_id
 _symmetry_equiv_pos_as_xyz
  1  'x, y, z'
loop_
 _atom_site_type_symbol
 _atom_site_label
 _atom_site_symmetry_multiplicity
 _atom_site_fract_x
 _atom_site_fract_y
 _atom_site_fract_z
 _atom_site_occupancy
  Na  Na0  1  0.12606122  0.25000000  0.50000000  1
  Na  Na1  1  0.75000000  0.12606122  0.00000000  1
  Na  Na2  1  0.25000000  0.37393878  -0.00000000  1
  Na  Na3  1  0.37393878  0.75000000  0.50000000  1
  Na  Na4  1  0.87393878  0.75000000  0.50000000  1
  Na  Na5  1  0.25000000  0.87393878  -0.00000000  1
  Na  Na6  1  0.75000000  0.62606122  0.00000000  1
  Na  Na7  1  0.62606122  0.25000000  0.50000000  1
  Na  Na8  1  0.49666110  0.74666110  0.25000000  1
  Na  Na9  1  0.00333890  0.49666110  0.75000000  1
  Na  Na10  1  0.74666110  0.75333890  0.75000000  1
  Na  Na11  1  0.75333890  0.00333890  0.25000000  1
  Na  Na12  1  0.50333890  0.25333890  0.75000000  1
  Na  Na13  1  0.99666110  0.50333890  0.25000000  1
  Na  Na14  1  0.25333890  0.24666110  0.25000000  1
  Na  Na15  1  0.24666110  0.99666110  0.75000000  1
  Sn  Sn16  1  0.00521573  0.06037803  0.87163239  1
  Sn  Sn17  1  0.31125536  0.00521573  0.37163239  1
  Sn  Sn18  1  0.06037803  0.86641666  0.37163239  1
  Sn  Sn19  1  0.63358334  0.43962197  0.12836761  1
  Sn  Sn20  1  0.49478427  0.18874464  0.12836761  1
  Sn  Sn21  1  0.18874464  0.63358334  0.62836761  1
  Sn  Sn22  1  0.43962197  0.49478427  0.62836761  1
  Sn  Sn23  1  0.86641666  0.31125536  0.87163239  1
  Sn  Sn24  1  0.99478427  0.93962197  0.12836761  1
  Sn  Sn25  1  0.68874464  0.99478427  0.62836761  1
  Sn  Sn26  1  0.93962197  0.13358334  0.62836761  1
  Sn  Sn27  1  0.36641666  0.56037803  0.87163239  1
  Sn  Sn28  1  0.50521573  0.81125536  0.87163239  1
  Sn  Sn29  1  0.81125536  0.36641666  0.37163239  1
  Sn  Sn30  1  0.56037803  0.50521573  0.37163239  1
  Sn  Sn31  1  0.13358334  0.68874464  0.12836761  1
