# generated using pymatgen
data_NaAu2
_symmetry_space_group_name_H-M   'P 1'
_cell_length_a   5.54529496
_cell_length_b   5.54529407
_cell_length_c   5.54529405
_cell_angle_alpha   59.99999412
_cell_angle_beta   59.99999941
_cell_angle_gamma   60.00000485
_symmetry_Int_Tables_number   1
_chemical_formula_structural   NaAu2
_chemical_formula_sum   'Na2 Au4'
_cell_volume   120.57542778
_cell_formula_units_Z   2
loop_
 _symmetry_equiv_pos_site_id
 _symmetry_equiv_pos_as_xyz
  1  'x, y, z'
loop_
 _atom_site_type_symbol
 _atom_site_label
 _atom_site_symmetry_multiplicity
 _atom_site_fract_x
 _atom_site_fract_y
 _atom_site_fract_z
 _atom_site_occupancy
  Na  Na0  1  0.87500000  0.87500000  0.87500000  1
  Na  Na1  1  0.12500000  0.12500000  0.12500000  1
  Au  Au2  1  0.50000000  0.50000000  0.50000000  1
  Au  Au3  1  0.50000000  0.50000000  -0.00000000  1
  Au  Au4  1  0.00000000  0.50000000  0.50000000  1
  Au  Au5  1  0.50000000  0.00000000  0.50000000  1
