# generated using pymatgen
data_NaIn
_symmetry_space_group_name_H-M   'P 1'
_cell_length_a   5.17314116
_cell_length_b   5.17314157
_cell_length_c   5.17314100
_cell_angle_alpha   60.00001001
_cell_angle_beta   60.00000744
_cell_angle_gamma   60.00001123
_symmetry_Int_Tables_number   1
_chemical_formula_structural   NaIn
_chemical_formula_sum   'Na2 In2'
_cell_volume   97.89220359
_cell_formula_units_Z   2
loop_
 _symmetry_equiv_pos_site_id
 _symmetry_equiv_pos_as_xyz
  1  'x, y, z'
loop_
 _atom_site_type_symbol
 _atom_site_label
 _atom_site_symmetry_multiplicity
 _atom_site_fract_x
 _atom_site_fract_y
 _atom_site_fract_z
 _atom_site_occupancy
  Na  Na0  1  0.62500000  0.62500000  0.62500000  1
  Na  Na1  1  0.37500000  0.37500000  0.37500000  1
  In  In2  1  0.12500000  0.12500000  0.12500000  1
  In  In3  1  0.87500000  0.87500000  0.87500000  1
