# generated using pymatgen
data_NaPt2
_symmetry_space_group_name_H-M   'P 1'
_cell_length_a   5.30662623
_cell_length_b   5.30662668
_cell_length_c   5.30662621
_cell_angle_alpha   60.00000288
_cell_angle_beta   60.00000008
_cell_angle_gamma   59.99999922
_symmetry_Int_Tables_number   1
_chemical_formula_structural   NaPt2
_chemical_formula_sum   'Na2 Pt4'
_cell_volume   105.66728357
_cell_formula_units_Z   2
loop_
 _symmetry_equiv_pos_site_id
 _symmetry_equiv_pos_as_xyz
  1  'x, y, z'
loop_
 _atom_site_type_symbol
 _atom_site_label
 _atom_site_symmetry_multiplicity
 _atom_site_fract_x
 _atom_site_fract_y
 _atom_site_fract_z
 _atom_site_occupancy
  Na  Na0  1  0.87500000  0.87500000  0.87500000  1
  Na  Na1  1  0.12500000  0.12500000  0.12500000  1
  Pt  Pt2  1  0.50000000  0.50000000  0.50000000  1
  Pt  Pt3  1  0.50000000  0.50000000  -0.00000000  1
  Pt  Pt4  1  -0.00000000  0.50000000  0.50000000  1
  Pt  Pt5  1  0.50000000  0.00000000  0.50000000  1
