# generated using pymatgen
data_NaLi3
_symmetry_space_group_name_H-M   'P 1'
_cell_length_a   6.54517502
_cell_length_b   6.54517502
_cell_length_c   5.39396723
_cell_angle_alpha   90.00000000
_cell_angle_beta   90.00000000
_cell_angle_gamma   120.00000847
_symmetry_Int_Tables_number   1
_chemical_formula_structural   NaLi3
_chemical_formula_sum   'Na2 Li6'
_cell_volume   200.11582168
_cell_formula_units_Z   2
loop_
 _symmetry_equiv_pos_site_id
 _symmetry_equiv_pos_as_xyz
  1  'x, y, z'
loop_
 _atom_site_type_symbol
 _atom_site_label
 _atom_site_symmetry_multiplicity
 _atom_site_fract_x
 _atom_site_fract_y
 _atom_site_fract_z
 _atom_site_occupancy
  Na  Na0  1  0.66666700  0.33333300  0.25000000  1
  Na  Na1  1  0.33333300  0.66666700  0.75000000  1
  Li  Li2  1  0.84016130  0.15983870  0.75000000  1
  Li  Li3  1  0.31967639  0.15983870  0.75000000  1
  Li  Li4  1  0.84016130  0.68032361  0.75000000  1
  Li  Li5  1  0.15983870  0.84016130  0.25000000  1
  Li  Li6  1  0.68032361  0.84016130  0.25000000  1
  Li  Li7  1  0.15983870  0.31967639  0.25000000  1
