# generated using pymatgen
data_Na7Sn12
_symmetry_space_group_name_H-M   'P 1'
_cell_length_a   9.52203948
_cell_length_b   13.76693305
_cell_length_c   17.98895704
_cell_angle_alpha   90.30099818
_cell_angle_beta   90.06134039
_cell_angle_gamma   89.90941778
_symmetry_Int_Tables_number   1
_chemical_formula_structural   Na7Sn12
_chemical_formula_sum   'Na28 Sn48'
_cell_volume   2358.12260847
_cell_formula_units_Z   4
loop_
 _symmetry_equiv_pos_site_id
 _symmetry_equiv_pos_as_xyz
  1  'x, y, z'
loop_
 _atom_site_type_symbol
 _atom_site_label
 _atom_site_symmetry_multiplicity
 _atom_site_fract_x
 _atom_site_fract_y
 _atom_site_fract_z
 _atom_site_occupancy
  Na  Na0  1  0.18296089  0.40493420  0.48758053  1
  Na  Na1  1  0.81703911  0.59506580  0.51241947  1
  Na  Na2  1  0.18365015  0.09636913  0.01241842  1
  Na  Na3  1  0.81634985  0.90363087  0.98758158  1
  Na  Na4  1  0.55593465  0.77443893  0.41851925  1
  Na  Na5  1  0.44406535  0.22556107  0.58148075  1
  Na  Na6  1  0.55361829  0.71865567  0.07760622  1
  Na  Na7  1  0.44638171  0.28134433  0.92239378  1
  Na  Na8  1  0.26744695  0.41239319  0.27874311  1
  Na  Na9  1  0.73255305  0.58760681  0.72125689  1
  Na  Na10  1  0.26784703  0.08923706  0.21990743  1
  Na  Na11  1  0.73215297  0.91076294  0.78009257  1
  Na  Na12  1  0.17680825  0.76387645  0.47778160  1
  Na  Na13  1  0.82319175  0.23612355  0.52221840  1
  Na  Na14  1  0.18514880  0.72805350  0.02076346  1
  Na  Na15  1  0.81485120  0.27194650  0.97923654  1
  Na  Na16  1  0.55531025  0.39760042  0.42454959  1
  Na  Na17  1  0.44468975  0.60239958  0.57545041  1
  Na  Na18  1  0.55458132  0.10279232  0.07511261  1
  Na  Na19  1  0.44541868  0.89720768  0.92488739  1
  Na  Na20  1  0.26795299  0.74866671  0.24911545  1
  Na  Na21  1  0.73204701  0.25133329  0.75088455  1
  Na  Na22  1  0.13986804  0.08518589  0.49001965  1
  Na  Na23  1  0.86013196  0.91481411  0.50998035  1
  Na  Na24  1  0.14937747  0.42106210  0.00810727  1
  Na  Na25  1  0.85062253  0.57893790  0.99189273  1
  Na  Na26  1  0.59892768  0.06778846  0.44746115  1
  Na  Na27  1  0.40107232  0.93221154  0.55253885  1
  Sn  Sn28  1  0.35077924  0.58806213  0.40032277  1
  Sn  Sn29  1  0.64922076  0.41193787  0.59967723  1
  Sn  Sn30  1  0.35062393  0.91146848  0.10080826  1
  Sn  Sn31  1  0.64937607  0.08853152  0.89919174  1
  Sn  Sn32  1  0.71687203  0.41628717  0.26010463  1
  Sn  Sn33  1  0.28312797  0.58371283  0.73989537  1
  Sn  Sn34  1  0.71504462  0.08408948  0.24010799  1
  Sn  Sn35  1  0.28495538  0.91591052  0.75989201  1
  Sn  Sn36  1  0.05744106  0.58385630  0.34180759  1
  Sn  Sn37  1  0.94255894  0.41614370  0.65819241  1
  Sn  Sn38  1  0.05748661  0.91586354  0.15794373  1
  Sn  Sn39  1  0.94251339  0.08413646  0.84205627  1
  Sn  Sn40  1  0.89921283  0.41183191  0.39060064  1
  Sn  Sn41  1  0.10078717  0.58816809  0.60939936  1
  Sn  Sn42  1  0.90029069  0.08867972  0.11090024  1
  Sn  Sn43  1  0.09970931  0.91132028  0.88909976  1
  Sn  Sn44  1  0.88465926  0.08283295  0.37326839  1
  Sn  Sn45  1  0.11534074  0.91716705  0.62673161  1
  Sn  Sn46  1  0.87600390  0.41737124  0.12425733  1
  Sn  Sn47  1  0.12399610  0.58262876  0.87574267  1
  Sn  Sn48  1  0.05820349  0.92176840  0.32504292  1
  Sn  Sn49  1  0.94179651  0.07823160  0.67495708  1
  Sn  Sn50  1  0.06195693  0.57522908  0.17376231  1
  Sn  Sn51  1  0.93804307  0.42477092  0.82623769  1
  Sn  Sn52  1  0.52490033  0.25065968  0.25011995  1
  Sn  Sn53  1  0.47509967  0.74934032  0.74988005  1
  Sn  Sn54  1  0.34992242  0.95894452  0.37293488  1
  Sn  Sn55  1  0.65007758  0.04105548  0.62706512  1
  Sn  Sn56  1  0.35885575  0.53777503  0.12314920  1
  Sn  Sn57  1  0.64114425  0.46222497  0.87685080  1
  Sn  Sn58  1  0.71060781  0.74871725  0.25023384  1
  Sn  Sn59  1  0.28939219  0.25128275  0.74976616  1
  Sn  Sn60  1  0.52116368  0.57959326  0.26166767  1
  Sn  Sn61  1  0.47883632  0.42040674  0.73833233  1
  Sn  Sn62  1  0.52349228  0.91889400  0.23851110  1
  Sn  Sn63  1  0.47650772  0.08110600  0.76148890  1
  Sn  Sn64  1  0.06248086  0.24344121  0.33390702  1
  Sn  Sn65  1  0.93751914  0.75655879  0.66609298  1
  Sn  Sn66  1  0.06279759  0.25869278  0.16488045  1
  Sn  Sn67  1  0.93720241  0.74130722  0.83511955  1
  Sn  Sn68  1  0.35597961  0.20092398  0.38407546  1
  Sn  Sn69  1  0.64402039  0.79907602  0.61592454  1
  Sn  Sn70  1  0.36027291  0.30323977  0.11545549  1
  Sn  Sn71  1  0.63972709  0.69676023  0.88454451  1
  Sn  Sn72  1  0.89259357  0.75576363  0.37994878  1
  Sn  Sn73  1  0.10740643  0.24423637  0.62005122  1
  Sn  Sn74  1  0.89465742  0.74335660  0.12140002  1
  Sn  Sn75  1  0.10534258  0.25664340  0.87859998  1
