# generated using pymatgen
data_Na2Sn
_symmetry_space_group_name_H-M   'P 1'
_cell_length_a   12.66132871
_cell_length_b   12.66132871
_cell_length_c   12.99177093
_cell_angle_alpha   119.16213287
_cell_angle_beta   119.16213287
_cell_angle_gamma   90.00000000
_symmetry_Int_Tables_number   1
_chemical_formula_structural   Na2Sn
_chemical_formula_sum   'Na32 Sn16'
_cell_volume   1509.22014177
_cell_formula_units_Z   16
loop_
 _symmetry_equiv_pos_site_id
 _symmetry_equiv_pos_as_xyz
  1  'x, y, z'
loop_
 _atom_site_type_symbol
 _atom_site_label
 _atom_site_symmetry_multiplicity
 _atom_site_fract_x
 _atom_site_fract_y
 _atom_site_fract_z
 _atom_site_occupancy
  Na  Na0  1  0.44449148  0.26906635  0.51119781  1
  Na  Na1  1  0.06670633  0.24213145  0.51119781  1
  Na  Na2  1  0.49213145  0.19449148  0.01119781  1
  Na  Na3  1  0.30550852  0.00786855  0.98880219  1
  Na  Na4  1  0.80550852  0.48093365  0.98880219  1
  Na  Na5  1  0.51906635  0.81670633  0.01119781  1
  Na  Na6  1  0.68329367  0.98093365  0.98880219  1
  Na  Na7  1  0.18329367  0.50786855  0.98880219  1
  Na  Na8  1  0.25786855  0.43329367  0.48880219  1
  Na  Na9  1  0.75786855  0.55550852  0.48880219  1
  Na  Na10  1  0.23093365  0.05550852  0.48880219  1
  Na  Na11  1  0.73093365  0.93329367  0.48880219  1
  Na  Na12  1  0.94449148  0.74213145  0.51119781  1
  Na  Na13  1  0.56670633  0.76906635  0.51119781  1
  Na  Na14  1  0.01906635  0.69449148  0.01119781  1
  Na  Na15  1  0.99213145  0.31670633  0.01119781  1
  Na  Na16  1  0.27431766  0.56404212  0.33381336  1
  Na  Na17  1  0.05949570  0.76977124  0.33381336  1
  Na  Na18  1  0.01977124  0.02431766  0.83381336  1
  Na  Na19  1  0.47568234  0.48022876  0.16618664  1
  Na  Na20  1  0.97568234  0.18595788  0.16618664  1
  Na  Na21  1  0.81404212  0.80949570  0.83381336  1
  Na  Na22  1  0.69050430  0.68595788  0.16618664  1
  Na  Na23  1  0.19050430  0.98022876  0.16618664  1
  Na  Na24  1  0.73022876  0.44050430  0.66618664  1
  Na  Na25  1  0.23022876  0.72568234  0.66618664  1
  Na  Na26  1  0.93595788  0.22568234  0.66618664  1
  Na  Na27  1  0.43595788  0.94050430  0.66618664  1
  Na  Na28  1  0.77431766  0.26977124  0.33381336  1
  Na  Na29  1  0.55949570  0.06404212  0.33381336  1
  Na  Na30  1  0.31404212  0.52431766  0.83381336  1
  Na  Na31  1  0.51977124  0.30949570  0.83381336  1
  Sn  Sn32  1  0.50937609  0.31400564  0.31722846  1
  Sn  Sn33  1  0.80785237  0.00322283  0.31722846  1
  Sn  Sn34  1  0.25322283  0.25937609  0.81722846  1
  Sn  Sn35  1  0.24062391  0.24677717  0.18277154  1
  Sn  Sn36  1  0.74062391  0.43599436  0.18277154  1
  Sn  Sn37  1  0.56400564  0.55785237  0.81722846  1
  Sn  Sn38  1  0.94214763  0.93599436  0.18277154  1
  Sn  Sn39  1  0.44214763  0.74677717  0.18277154  1
  Sn  Sn40  1  0.49677717  0.69214763  0.68277154  1
  Sn  Sn41  1  0.99677717  0.49062391  0.68277154  1
  Sn  Sn42  1  0.18599436  0.99062391  0.68277154  1
  Sn  Sn43  1  0.68599436  0.19214763  0.68277154  1
  Sn  Sn44  1  0.00937609  0.50322283  0.31722846  1
  Sn  Sn45  1  0.30785237  0.81400564  0.31722846  1
  Sn  Sn46  1  0.06400564  0.75937609  0.81722846  1
  Sn  Sn47  1  0.75322283  0.05785237  0.81722846  1
