# generated using pymatgen
data_Na8Hg3
_symmetry_space_group_name_H-M   'P 1'
_cell_length_a   18.03742798
_cell_length_b   18.03742798
_cell_length_c   18.03742763
_cell_angle_alpha   29.40812011
_cell_angle_beta   29.40812011
_cell_angle_gamma   29.40812038
_symmetry_Int_Tables_number   1
_chemical_formula_structural   Na8Hg3
_chemical_formula_sum   'Na32 Hg12'
_cell_volume   1252.23045662
_cell_formula_units_Z   4
loop_
 _symmetry_equiv_pos_site_id
 _symmetry_equiv_pos_as_xyz
  1  'x, y, z'
loop_
 _atom_site_type_symbol
 _atom_site_label
 _atom_site_symmetry_multiplicity
 _atom_site_fract_x
 _atom_site_fract_y
 _atom_site_fract_z
 _atom_site_occupancy
  Na  Na0  1  0.20928176  0.85876237  0.48606702  1
  Na  Na1  1  0.85876237  0.48606702  0.20928176  1
  Na  Na2  1  0.48606702  0.20928176  0.85876237  1
  Na  Na3  1  0.64123763  0.29071824  0.01393298  1
  Na  Na4  1  0.29071824  0.01393298  0.64123763  1
  Na  Na5  1  0.01393298  0.64123763  0.29071824  1
  Na  Na6  1  0.79071824  0.14123763  0.51393298  1
  Na  Na7  1  0.14123763  0.51393298  0.79071824  1
  Na  Na8  1  0.51393298  0.79071824  0.14123763  1
  Na  Na9  1  0.35876237  0.70928176  0.98606702  1
  Na  Na10  1  0.70928176  0.98606702  0.35876237  1
  Na  Na11  1  0.98606702  0.35876237  0.70928176  1
  Na  Na12  1  0.63581946  0.87951314  0.14135167  1
  Na  Na13  1  0.87951314  0.14135167  0.63581946  1
  Na  Na14  1  0.14135167  0.63581946  0.87951314  1
  Na  Na15  1  0.62048686  0.86418054  0.35864833  1
  Na  Na16  1  0.86418054  0.35864833  0.62048686  1
  Na  Na17  1  0.35864833  0.62048686  0.86418054  1
  Na  Na18  1  0.36418054  0.12048686  0.85864833  1
  Na  Na19  1  0.12048686  0.85864833  0.36418054  1
  Na  Na20  1  0.85864833  0.36418054  0.12048686  1
  Na  Na21  1  0.37951314  0.13581946  0.64135167  1
  Na  Na22  1  0.13581946  0.64135167  0.37951314  1
  Na  Na23  1  0.64135167  0.37951314  0.13581946  1
  Na  Na24  1  0.56156333  0.56156333  0.56156333  1
  Na  Na25  1  0.93843667  0.93843667  0.93843667  1
  Na  Na26  1  0.43843667  0.43843667  0.43843667  1
  Na  Na27  1  0.06156333  0.06156333  0.06156333  1
  Na  Na28  1  0.21995473  0.21995473  0.21995473  1
  Na  Na29  1  0.28004527  0.28004527  0.28004527  1
  Na  Na30  1  0.78004527  0.78004527  0.78004527  1
  Na  Na31  1  0.71995473  0.71995473  0.71995473  1
  Hg  Hg32  1  0.06602330  0.43397670  0.75000000  1
  Hg  Hg33  1  0.43397670  0.75000000  0.06602330  1
  Hg  Hg34  1  0.75000000  0.06602330  0.43397670  1
  Hg  Hg35  1  0.93397670  0.56602330  0.25000000  1
  Hg  Hg36  1  0.56602330  0.25000000  0.93397670  1
  Hg  Hg37  1  0.25000000  0.93397670  0.56602330  1
  Hg  Hg38  1  0.50000000  0.50000000  0.50000000  1
  Hg  Hg39  1  -0.00000000  0.00000000  -0.00000000  1
  Hg  Hg40  1  0.84197154  0.84197154  0.84197154  1
  Hg  Hg41  1  0.65802846  0.65802846  0.65802846  1
  Hg  Hg42  1  0.15802846  0.15802846  0.15802846  1
  Hg  Hg43  1  0.34197154  0.34197154  0.34197154  1
