# generated using pymatgen
data_Na2Au
_symmetry_space_group_name_H-M   'P 1'
_cell_length_a   5.61695073
_cell_length_b   5.87450861
_cell_length_c   5.87450892
_cell_angle_alpha   76.78775884
_cell_angle_beta   61.44002229
_cell_angle_gamma   61.44003678
_symmetry_Int_Tables_number   1
_chemical_formula_structural   Na2Au
_chemical_formula_sum   'Na4 Au2'
_cell_volume   149.53625511
_cell_formula_units_Z   2
loop_
 _symmetry_equiv_pos_site_id
 _symmetry_equiv_pos_as_xyz
  1  'x, y, z'
loop_
 _atom_site_type_symbol
 _atom_site_label
 _atom_site_symmetry_multiplicity
 _atom_site_fract_x
 _atom_site_fract_y
 _atom_site_fract_z
 _atom_site_occupancy
  Na  Na0  1  0.82530624  0.50000000  0.84938552  1
  Na  Na1  1  0.67469376  0.15061448  0.50000000  1
  Na  Na2  1  0.17469376  0.50000000  0.15061448  1
  Na  Na3  1  0.32530624  0.84938552  0.50000000  1
  Au  Au4  1  0.75000000  0.00000000  -0.00000000  1
  Au  Au5  1  0.25000000  0.00000000  -0.00000000  1
