# generated using pymatgen
data_Na3Ag
_symmetry_space_group_name_H-M   'P 1'
_cell_length_a   6.79795582
_cell_length_b   6.79795582
_cell_length_c   5.36884717
_cell_angle_alpha   90.00000000
_cell_angle_beta   90.00000000
_cell_angle_gamma   119.99998539
_symmetry_Int_Tables_number   1
_chemical_formula_structural   Na3Ag
_chemical_formula_sum   'Na6 Ag2'
_cell_volume   214.86635304
_cell_formula_units_Z   2
loop_
 _symmetry_equiv_pos_site_id
 _symmetry_equiv_pos_as_xyz
  1  'x, y, z'
loop_
 _atom_site_type_symbol
 _atom_site_label
 _atom_site_symmetry_multiplicity
 _atom_site_fract_x
 _atom_site_fract_y
 _atom_site_fract_z
 _atom_site_occupancy
  Na  Na0  1  0.17699621  0.35399041  0.25000000  1
  Na  Na1  1  0.64600959  0.82300379  0.25000000  1
  Na  Na2  1  0.17699621  0.82300379  0.25000000  1
  Na  Na3  1  0.82300379  0.64600959  0.75000000  1
  Na  Na4  1  0.35399041  0.17699621  0.75000000  1
  Na  Na5  1  0.82300379  0.17699621  0.75000000  1
  Ag  Ag6  1  0.33333300  0.66666700  0.75000000  1
  Ag  Ag7  1  0.66666700  0.33333300  0.25000000  1
