# generated using pymatgen
data_Nb5P3
_symmetry_space_group_name_H-M   'P 1'
_cell_length_a   3.44476756
_cell_length_b   11.54525737
_cell_length_c   25.53917363
_cell_angle_alpha   90.00000000
_cell_angle_beta   90.00000000
_cell_angle_gamma   90.00000000
_symmetry_Int_Tables_number   1
_chemical_formula_structural   Nb5P3
_chemical_formula_sum   'Nb40 P24'
_cell_volume   1015.71152932
_cell_formula_units_Z   8
loop_
 _symmetry_equiv_pos_site_id
 _symmetry_equiv_pos_as_xyz
  1  'x, y, z'
loop_
 _atom_site_type_symbol
 _atom_site_label
 _atom_site_symmetry_multiplicity
 _atom_site_fract_x
 _atom_site_fract_y
 _atom_site_fract_z
 _atom_site_occupancy
  Nb  Nb0  1  0.25000000  0.93210578  0.60096599  1
  Nb  Nb1  1  0.25000000  0.34434672  0.25978468  1
  Nb  Nb2  1  0.75000000  0.43210578  0.89903401  1
  Nb  Nb3  1  0.25000000  0.21175896  0.62436524  1
  Nb  Nb4  1  0.75000000  0.06789422  0.39903401  1
  Nb  Nb5  1  0.25000000  0.56789422  0.10096599  1
  Nb  Nb6  1  0.75000000  0.60744849  0.00074003  1
  Nb  Nb7  1  0.75000000  0.37962780  0.77424867  1
  Nb  Nb8  1  0.25000000  0.15565328  0.75978468  1
  Nb  Nb9  1  0.25000000  0.10744849  0.49925997  1
  Nb  Nb10  1  0.75000000  0.05632720  0.15173542  1
  Nb  Nb11  1  0.75000000  0.45915821  0.17700137  1
  Nb  Nb12  1  0.75000000  0.19365939  0.04548248  1
  Nb  Nb13  1  0.25000000  0.94367280  0.84826458  1
  Nb  Nb14  1  0.25000000  0.41443317  0.46438958  1
  Nb  Nb15  1  0.25000000  0.80634061  0.95451752  1
  Nb  Nb16  1  0.75000000  0.34317710  0.36245883  1
  Nb  Nb17  1  0.75000000  0.89255151  0.50074003  1
  Nb  Nb18  1  0.25000000  0.65682290  0.63754117  1
  Nb  Nb19  1  0.75000000  0.04084179  0.67700137  1
  Nb  Nb20  1  0.75000000  0.44367280  0.65173542  1
  Nb  Nb21  1  0.25000000  0.08556683  0.96438958  1
  Nb  Nb22  1  0.75000000  0.58556683  0.53561042  1
  Nb  Nb23  1  0.25000000  0.39255151  0.99925997  1
  Nb  Nb24  1  0.75000000  0.15682290  0.86245883  1
  Nb  Nb25  1  0.25000000  0.62037220  0.22575133  1
  Nb  Nb26  1  0.75000000  0.78824104  0.37563476  1
  Nb  Nb27  1  0.25000000  0.54084179  0.82299863  1
  Nb  Nb28  1  0.75000000  0.84434672  0.24021532  1
  Nb  Nb29  1  0.75000000  0.65565328  0.74021532  1
  Nb  Nb30  1  0.25000000  0.84317710  0.13754117  1
  Nb  Nb31  1  0.25000000  0.28824104  0.12436524  1
  Nb  Nb32  1  0.75000000  0.71175896  0.87563476  1
  Nb  Nb33  1  0.75000000  0.30634061  0.54548248  1
  Nb  Nb34  1  0.25000000  0.87962780  0.72575133  1
  Nb  Nb35  1  0.25000000  0.95915821  0.32299863  1
  Nb  Nb36  1  0.25000000  0.69365939  0.45451752  1
  Nb  Nb37  1  0.75000000  0.12037220  0.27424867  1
  Nb  Nb38  1  0.25000000  0.55632720  0.34826458  1
  Nb  Nb39  1  0.75000000  0.91443317  0.03561042  1
  P  P40  1  0.75000000  0.25071261  0.95098776  1
  P  P41  1  0.75000000  0.50029578  0.28014998  1
  P  P42  1  0.75000000  0.41858930  0.07285325  1
  P  P43  1  0.25000000  0.74553902  0.30287488  1
  P  P44  1  0.25000000  0.05104021  0.07679920  1
  P  P45  1  0.25000000  0.00029578  0.21985002  1
  P  P46  1  0.75000000  0.25446098  0.69712512  1
  P  P47  1  0.75000000  0.24553902  0.19712512  1
  P  P48  1  0.25000000  0.75071261  0.54901224  1
  P  P49  1  0.75000000  0.94895979  0.92320080  1
  P  P50  1  0.25000000  0.75446098  0.80287488  1
  P  P51  1  0.75000000  0.68776377  0.15805286  1
  P  P52  1  0.25000000  0.58141070  0.92714675  1
  P  P53  1  0.75000000  0.24928739  0.45098776  1
  P  P54  1  0.25000000  0.91858930  0.42714675  1
  P  P55  1  0.25000000  0.44895979  0.57679920  1
  P  P56  1  0.75000000  0.81223623  0.65805286  1
  P  P57  1  0.25000000  0.18776377  0.34194714  1
  P  P58  1  0.75000000  0.08141070  0.57285325  1
  P  P59  1  0.25000000  0.49970422  0.71985002  1
  P  P60  1  0.75000000  0.99970422  0.78014998  1
  P  P61  1  0.25000000  0.31223623  0.84194714  1
  P  P62  1  0.75000000  0.55104021  0.42320080  1
  P  P63  1  0.25000000  0.74928739  0.04901224  1
