# generated using pymatgen
data_Nb5B6
_symmetry_space_group_name_H-M   'P 1'
_cell_length_a   3.16670630
_cell_length_b   3.31689087
_cell_length_c   11.55449525
_cell_angle_alpha   90.00000000
_cell_angle_beta   97.87622746
_cell_angle_gamma   90.00000000
_symmetry_Int_Tables_number   1
_chemical_formula_structural   Nb5B6
_chemical_formula_sum   'Nb5 B6'
_cell_volume   120.21911931
_cell_formula_units_Z   1
loop_
 _symmetry_equiv_pos_site_id
 _symmetry_equiv_pos_as_xyz
  1  'x, y, z'
loop_
 _atom_site_type_symbol
 _atom_site_label
 _atom_site_symmetry_multiplicity
 _atom_site_fract_x
 _atom_site_fract_y
 _atom_site_fract_z
 _atom_site_occupancy
  Nb  Nb0  1  0.00000000  0.00000000  0.00000000  1
  Nb  Nb1  1  0.38575815  0.00000000  0.77151529  1
  Nb  Nb2  1  0.61424185  -0.00000000  0.22848471  1
  Nb  Nb3  1  0.19433672  0.50000000  0.38867044  1
  Nb  Nb4  1  0.80566328  0.50000000  0.61132956  1
  B  B5  1  0.08164881  0.50000000  0.16329861  1
  B  B6  1  0.91835119  0.50000000  0.83670139  1
  B  B7  1  0.27251454  0.00000000  0.54502708  1
  B  B8  1  0.72748546  0.00000000  0.45497292  1
  B  B9  1  0.46037294  0.50000000  0.92074589  1
  B  B10  1  0.53962706  0.50000000  0.07925411  1
