# generated using pymatgen
data_Nb3Cl8
_symmetry_space_group_name_H-M   'P 1'
_cell_length_a   6.80126383
_cell_length_b   6.80133420
_cell_length_c   12.76792964
_cell_angle_alpha   89.99810123
_cell_angle_beta   89.99798451
_cell_angle_gamma   120.00096498
_symmetry_Int_Tables_number   1
_chemical_formula_structural   Nb3Cl8
_chemical_formula_sum   'Nb6 Cl16'
_cell_volume   511.48231938
_cell_formula_units_Z   2
loop_
 _symmetry_equiv_pos_site_id
 _symmetry_equiv_pos_as_xyz
  1  'x, y, z'
loop_
 _atom_site_type_symbol
 _atom_site_label
 _atom_site_symmetry_multiplicity
 _atom_site_fract_x
 _atom_site_fract_y
 _atom_site_fract_z
 _atom_site_occupancy
  Nb  Nb0  1  0.52892174  0.05780542  0.24576120  1
  Nb  Nb1  1  0.94224422  0.47112009  0.24575797  1
  Nb  Nb2  1  0.52892870  0.47112269  0.24576323  1
  Nb  Nb3  1  0.47107171  0.94219158  0.75423885  1
  Nb  Nb4  1  0.47108024  0.52888479  0.75423756  1
  Nb  Nb5  1  0.05775819  0.52887322  0.75424259  1
  Cl  Cl6  1  0.66673937  0.33337730  0.10078157  1
  Cl  Cl7  1  0.33327309  0.66662832  0.89920809  1
  Cl  Cl8  1  0.33332331  0.66666413  0.35153654  1
  Cl  Cl9  1  0.66667159  0.33333631  0.64846349  1
  Cl  Cl10  1  0.66994177  0.83500081  0.13968306  1
  Cl  Cl11  1  0.16505844  0.83495383  0.13969225  1
  Cl  Cl12  1  0.16506633  0.33011723  0.13969131  1
  Cl  Cl13  1  0.83490663  0.16502729  0.86031158  1
  Cl  Cl14  1  0.33007076  0.16502847  0.86031458  1
  Cl  Cl15  1  0.83494409  0.66987755  0.86030860  1
  Cl  Cl16  1  0.33692790  0.16845586  0.37524184  1
  Cl  Cl17  1  0.83154589  0.16846474  0.37523438  1
  Cl  Cl18  1  0.83157174  0.66307262  0.37523875  1
  Cl  Cl19  1  0.16844403  0.83151461  0.62476427  1
  Cl  Cl20  1  0.66305750  0.83155208  0.62475940  1
  Cl  Cl21  1  0.16845076  0.33693505  0.62476587  1
