# generated using pymatgen
data_Nb3B2
_symmetry_space_group_name_H-M   'P 1'
_cell_length_a   3.31146728
_cell_length_b   6.23278742
_cell_length_c   6.23278742
_cell_angle_alpha   90.00000000
_cell_angle_beta   90.00000000
_cell_angle_gamma   90.00000000
_symmetry_Int_Tables_number   1
_chemical_formula_structural   Nb3B2
_chemical_formula_sum   'Nb6 B4'
_cell_volume   128.64268553
_cell_formula_units_Z   2
loop_
 _symmetry_equiv_pos_site_id
 _symmetry_equiv_pos_as_xyz
  1  'x, y, z'
loop_
 _atom_site_type_symbol
 _atom_site_label
 _atom_site_symmetry_multiplicity
 _atom_site_fract_x
 _atom_site_fract_y
 _atom_site_fract_z
 _atom_site_occupancy
  Nb  Nb0  1  -0.00000000  -0.00000000  -0.00000000  1
  Nb  Nb1  1  -0.00000000  0.50000000  0.50000000  1
  Nb  Nb2  1  0.50000000  0.82173271  0.32173271  1
  Nb  Nb3  1  0.50000000  0.67826729  0.82173271  1
  Nb  Nb4  1  0.50000000  0.32173271  0.17826729  1
  Nb  Nb5  1  0.50000000  0.17826729  0.67826729  1
  B  B6  1  -0.00000000  0.60513122  0.10513122  1
  B  B7  1  0.00000000  0.89486878  0.60513122  1
  B  B8  1  -0.00000000  0.10513122  0.39486878  1
  B  B9  1  0.00000000  0.39486878  0.89486878  1
