# generated using pymatgen
data_Nb2C
_symmetry_space_group_name_H-M   'P 1'
_cell_length_a   3.10629662
_cell_length_b   4.99225010
_cell_length_c   11.03561018
_cell_angle_alpha   90.00000000
_cell_angle_beta   90.00000000
_cell_angle_gamma   90.00000000
_symmetry_Int_Tables_number   1
_chemical_formula_structural   Nb2C
_chemical_formula_sum   'Nb8 C4'
_cell_volume   171.13372738
_cell_formula_units_Z   4
loop_
 _symmetry_equiv_pos_site_id
 _symmetry_equiv_pos_as_xyz
  1  'x, y, z'
loop_
 _atom_site_type_symbol
 _atom_site_label
 _atom_site_symmetry_multiplicity
 _atom_site_fract_x
 _atom_site_fract_y
 _atom_site_fract_z
 _atom_site_occupancy
  Nb  Nb0  1  0.00000000  0.73353342  0.29697368  1
  Nb  Nb1  1  0.50000000  0.26646658  0.70302632  1
  Nb  Nb2  1  0.50000000  0.75361555  0.54628470  1
  Nb  Nb3  1  -0.00000000  0.76646658  0.79697368  1
  Nb  Nb4  1  0.50000000  0.74638445  0.04628470  1
  Nb  Nb5  1  -0.00000000  0.24638445  0.45371530  1
  Nb  Nb6  1  0.00000000  0.25361555  0.95371530  1
  Nb  Nb7  1  0.50000000  0.23353342  0.20302632  1
  C  C8  1  0.50000000  0.98958535  0.37553962  1
  C  C9  1  0.00000000  0.01041465  0.62446038  1
  C  C10  1  0.50000000  0.51041465  0.87553962  1
  C  C11  1  -0.00000000  0.48958535  0.12446038  1
