# generated using pymatgen
data_Nd4Si5
_symmetry_space_group_name_H-M   'P 1'
_cell_length_a   12.75756531
_cell_length_b   12.75756531
_cell_length_c   3.96225885
_cell_angle_alpha   90.00000000
_cell_angle_beta   90.00000000
_cell_angle_gamma   160.68771007
_symmetry_Int_Tables_number   1
_chemical_formula_structural   Nd4Si5
_chemical_formula_sum   'Nd4 Si5'
_cell_volume   213.27244191
_cell_formula_units_Z   1
loop_
 _symmetry_equiv_pos_site_id
 _symmetry_equiv_pos_as_xyz
  1  'x, y, z'
loop_
 _atom_site_type_symbol
 _atom_site_label
 _atom_site_symmetry_multiplicity
 _atom_site_fract_x
 _atom_site_fract_y
 _atom_site_fract_z
 _atom_site_occupancy
  Nd  Nd0  1  0.42980546  0.57019454  0.50000000  1
  Nd  Nd1  1  0.56974810  0.43025190  -0.00000000  1
  Nd  Nd2  1  0.70178757  0.29821243  0.50000000  1
  Nd  Nd3  1  0.29691422  0.70308578  -0.00000000  1
  Si  Si4  1  0.83083955  0.16916045  0.50000000  1
  Si  Si5  1  0.16877918  0.83122082  0.00000000  1
  Si  Si6  1  0.11246001  0.88753999  0.50000000  1
  Si  Si7  1  0.88787021  0.11212979  0.00000000  1
  Si  Si8  1  0.01979769  0.98020231  0.50000000  1
