# generated using pymatgen
data_NiO2
_symmetry_space_group_name_H-M   'P 1'
_cell_length_a   5.61183516
_cell_length_b   5.61006705
_cell_length_c   17.21522367
_cell_angle_alpha   60.56748260
_cell_angle_beta   60.50890272
_cell_angle_gamma   60.01894805
_symmetry_Int_Tables_number   1
_chemical_formula_structural   NiO2
_chemical_formula_sum   'Ni12 O24'
_cell_volume   386.38383230
_cell_formula_units_Z   12
loop_
 _symmetry_equiv_pos_site_id
 _symmetry_equiv_pos_as_xyz
  1  'x, y, z'
loop_
 _atom_site_type_symbol
 _atom_site_label
 _atom_site_symmetry_multiplicity
 _atom_site_fract_x
 _atom_site_fract_y
 _atom_site_fract_z
 _atom_site_occupancy
  Ni  Ni0  1  0.49841100  0.49734800  0.16730100  1
  Ni  Ni1  1  0.49843600  0.00246500  0.16719900  1
  Ni  Ni2  1  0.49367400  0.49376300  0.50514100  1
  Ni  Ni3  1  0.00370800  0.49739300  0.16714800  1
  Ni  Ni4  1  0.49375900  0.99828600  0.50491600  1
  Ni  Ni5  1  0.49939100  0.49991700  0.66713800  1
  Ni  Ni6  1  0.87544400  0.87501800  0.29075400  1
  Ni  Ni7  1  0.50346100  0.50425600  0.82928800  1
  Ni  Ni8  1  0.99808300  0.49387300  0.50496400  1
  Ni  Ni9  1  0.50351400  0.00397400  0.82927600  1
  Ni  Ni10  1  0.00323200  0.50427500  0.82925000  1
  Ni  Ni11  1  0.88037900  0.88128200  0.95117300  1
  O  O12  1  0.25739000  0.25582700  0.09563700  1
  O  O13  1  0.26397500  0.26321100  0.23610600  1
  O  O14  1  0.25823300  0.70025700  0.09543000  1
  O  O15  1  0.70057900  0.25761200  0.09520300  1
  O  O16  1  0.25453000  0.25436300  0.43177400  1
  O  O17  1  0.28634500  0.75122000  0.23668800  1
  O  O18  1  0.26019100  0.26064300  0.57267300  1
  O  O19  1  0.75238800  0.28555800  0.23650900  1
  O  O20  1  0.73785900  0.73622000  0.09703600  1
  O  O21  1  0.25498800  0.69736000  0.43170400  1
  O  O22  1  0.69659700  0.25544000  0.43158100  1
  O  O23  1  0.75268300  0.75172100  0.23634300  1
  O  O24  1  0.26490400  0.26534600  0.75312300  1
  O  O25  1  0.28839800  0.73424000  0.58105900  1
  O  O26  1  0.73400300  0.28866300  0.58097300  1
  O  O27  1  0.26815900  0.26907300  0.89742000  1
  O  O28  1  0.73229300  0.73221700  0.43509600  1
  O  O29  1  0.26545400  0.71045200  0.75295600  1
  O  O30  1  0.70985500  0.26618600  0.75287700  1
  O  O31  1  0.73459200  0.73505700  0.58067400  1
  O  O32  1  0.29230000  0.75064700  0.90170900  1
  O  O33  1  0.75023700  0.29279200  0.90145100  1
  O  O34  1  0.73787800  0.73842300  0.76192300  1
  O  O35  1  0.75091600  0.75187300  0.90092200  1
