# generated using pymatgen
data_Np3S5
_symmetry_space_group_name_H-M   'P 1'
_cell_length_a   7.47758653
_cell_length_b   8.07702301
_cell_length_c   11.84126329
_cell_angle_alpha   90.00000000
_cell_angle_beta   90.00000000
_cell_angle_gamma   90.00000000
_symmetry_Int_Tables_number   1
_chemical_formula_structural   Np3S5
_chemical_formula_sum   'Np12 S20'
_cell_volume   715.17249786
_cell_formula_units_Z   4
loop_
 _symmetry_equiv_pos_site_id
 _symmetry_equiv_pos_as_xyz
  1  'x, y, z'
loop_
 _atom_site_type_symbol
 _atom_site_label
 _atom_site_symmetry_multiplicity
 _atom_site_fract_x
 _atom_site_fract_y
 _atom_site_fract_z
 _atom_site_occupancy
  Np  Np0  1  0.02160574  0.00241800  0.67641975  1
  Np  Np1  1  0.52160574  0.99758200  0.82358025  1
  Np  Np2  1  0.47839426  0.49758200  0.17641975  1
  Np  Np3  1  0.97839426  0.50241800  0.32358025  1
  Np  Np4  1  0.97839426  0.99758200  0.32358025  1
  Np  Np5  1  0.47839426  0.00241800  0.17641975  1
  Np  Np6  1  0.52160574  0.50241800  0.82358025  1
  Np  Np7  1  0.02160574  0.49758200  0.67641975  1
  Np  Np8  1  0.56059129  0.25000000  0.50519843  1
  Np  Np9  1  0.06059129  0.75000000  0.99480157  1
  Np  Np10  1  0.93940871  0.25000000  0.00519843  1
  Np  Np11  1  0.43940871  0.75000000  0.49480157  1
  S  S12  1  0.33375089  0.25000000  0.68810633  1
  S  S13  1  0.83375089  0.75000000  0.81189367  1
  S  S14  1  0.16624911  0.25000000  0.18810633  1
  S  S15  1  0.66624911  0.75000000  0.31189367  1
  S  S16  1  0.95670405  0.25000000  0.50118689  1
  S  S17  1  0.45670405  0.75000000  -0.00118689  1
  S  S18  1  0.54329595  0.25000000  0.00118689  1
  S  S19  1  0.04329595  0.75000000  0.49881311  1
  S  S20  1  0.66630215  0.53763750  0.59690465  1
  S  S21  1  0.16630215  0.46236250  0.90309535  1
  S  S22  1  0.83369785  0.96236250  0.09690465  1
  S  S23  1  0.33369785  0.03763750  0.40309535  1
  S  S24  1  0.33369785  0.46236250  0.40309535  1
  S  S25  1  0.83369785  0.53763750  0.09690465  1
  S  S26  1  0.16630215  0.03763750  0.90309535  1
  S  S27  1  0.66630215  0.96236250  0.59690465  1
  S  S28  1  0.80743616  0.25000000  0.78751841  1
  S  S29  1  0.30743616  0.75000000  0.71248159  1
  S  S30  1  0.69256384  0.25000000  0.28751841  1
  S  S31  1  0.19256384  0.75000000  0.21248159  1
