# generated using pymatgen
data_NpCl3
_symmetry_space_group_name_H-M   'P 1'
_cell_length_a   7.42123120
_cell_length_b   7.42123111
_cell_length_c   4.31220639
_cell_angle_alpha   90.00000000
_cell_angle_beta   90.00000000
_cell_angle_gamma   119.99997753
_symmetry_Int_Tables_number   1
_chemical_formula_structural   NpCl3
_chemical_formula_sum   'Np2 Cl6'
_cell_volume   205.67532274
_cell_formula_units_Z   2
loop_
 _symmetry_equiv_pos_site_id
 _symmetry_equiv_pos_as_xyz
  1  'x, y, z'
loop_
 _atom_site_type_symbol
 _atom_site_label
 _atom_site_symmetry_multiplicity
 _atom_site_fract_x
 _atom_site_fract_y
 _atom_site_fract_z
 _atom_site_occupancy
  Np  Np0  1  0.66666700  0.33333300  0.75000000  1
  Np  Np1  1  0.33333300  0.66666700  0.25000000  1
  Cl  Cl2  1  0.61007190  0.69616900  0.75000000  1
  Cl  Cl3  1  0.91390290  0.61007190  0.25000000  1
  Cl  Cl4  1  0.38992810  0.30383100  0.25000000  1
  Cl  Cl5  1  0.08609710  0.38992810  0.75000000  1
  Cl  Cl6  1  0.30383100  0.91390290  0.75000000  1
  Cl  Cl7  1  0.69616900  0.08609710  0.25000000  1
