# generated using pymatgen
data_Np2S5
_symmetry_space_group_name_H-M   'P 1'
_cell_length_a   7.41761751
_cell_length_b   7.53120783
_cell_length_c   9.89446120
_cell_angle_alpha   90.00029241
_cell_angle_beta   89.99990486
_cell_angle_gamma   90.00029661
_symmetry_Int_Tables_number   1
_chemical_formula_structural   Np2S5
_chemical_formula_sum   'Np8 S20'
_cell_volume   552.74041139
_cell_formula_units_Z   4
loop_
 _symmetry_equiv_pos_site_id
 _symmetry_equiv_pos_as_xyz
  1  'x, y, z'
loop_
 _atom_site_type_symbol
 _atom_site_label
 _atom_site_symmetry_multiplicity
 _atom_site_fract_x
 _atom_site_fract_y
 _atom_site_fract_z
 _atom_site_occupancy
  Np  Np0  1  0.73028612  0.98149172  0.85290930  1
  Np  Np1  1  0.26970971  0.01850554  0.14711627  1
  Np  Np2  1  0.76973339  0.48144737  0.64688245  1
  Np  Np3  1  0.26970916  0.51850470  0.85290679  1
  Np  Np4  1  0.23026124  0.51856540  0.35310011  1
  Np  Np5  1  0.73028631  0.48149347  0.14711121  1
  Np  Np6  1  0.23026989  0.01854803  0.64688340  1
  Np  Np7  1  0.76973343  0.98144141  0.35309830  1
  S  S8  1  0.59917388  0.85131105  0.60094766  1
  S  S9  1  0.40083866  0.14869834  0.39903520  1
  S  S10  1  0.90078232  0.35136632  0.89896601  1
  S  S11  1  0.40081515  0.64869013  0.60094797  1
  S  S12  1  0.09922652  0.64862980  0.10104511  1
  S  S13  1  0.59916691  0.35131204  0.39903290  1
  S  S14  1  0.09921944  0.14862535  0.89896810  1
  S  S15  1  0.90077711  0.85136756  0.10104547  1
  S  S16  1  0.63561093  0.61322839  0.89339164  1
  S  S17  1  0.36438072  0.38678026  0.10661530  1
  S  S18  1  0.86439540  0.11323699  0.60649525  1
  S  S19  1  0.36438391  0.88677362  0.89339444  1
  S  S20  1  0.13559421  0.88673788  0.39348889  1
  S  S21  1  0.63561875  0.11321951  0.10661840  1
  S  S22  1  0.13561066  0.38675682  0.60649405  1
  S  S23  1  0.86441032  0.61326592  0.39348738  1
  S  S24  1  0.00000309  0.74999871  0.75091659  1
  S  S25  1  0.00000360  0.25000134  0.24909784  1
  S  S26  1  0.49999866  0.25000026  0.74897402  1
  S  S27  1  0.49999652  0.75000107  0.25103495  1
