# generated using pymatgen
data_Np2S3
_symmetry_space_group_name_H-M   'P 1'
_cell_length_a   3.99202268
_cell_length_b   10.61031491
_cell_length_c   10.87574867
_cell_angle_alpha   90.00000000
_cell_angle_beta   90.00000000
_cell_angle_gamma   90.00000000
_symmetry_Int_Tables_number   1
_chemical_formula_structural   Np2S3
_chemical_formula_sum   'Np8 S12'
_cell_volume   460.65992930
_cell_formula_units_Z   4
loop_
 _symmetry_equiv_pos_site_id
 _symmetry_equiv_pos_as_xyz
  1  'x, y, z'
loop_
 _atom_site_type_symbol
 _atom_site_label
 _atom_site_symmetry_multiplicity
 _atom_site_fract_x
 _atom_site_fract_y
 _atom_site_fract_z
 _atom_site_occupancy
  Np  Np0  1  0.25000000  0.31323118  0.99325386  1
  Np  Np1  1  0.75000000  0.68676882  0.00674614  1
  Np  Np2  1  0.75000000  0.81323118  0.50674614  1
  Np  Np3  1  0.25000000  0.18676882  0.49325386  1
  Np  Np4  1  0.25000000  0.50500503  0.30901468  1
  Np  Np5  1  0.75000000  0.49499497  0.69098532  1
  Np  Np6  1  0.75000000  0.00500503  0.19098532  1
  Np  Np7  1  0.25000000  0.99499497  0.80901468  1
  S  S8  1  0.25000000  0.87279313  0.04814229  1
  S  S9  1  0.75000000  0.12720687  0.95185771  1
  S  S10  1  0.75000000  0.37279313  0.45185771  1
  S  S11  1  0.25000000  0.62720687  0.54814229  1
  S  S12  1  0.25000000  0.55418620  0.87876096  1
  S  S13  1  0.75000000  0.44581380  0.12123904  1
  S  S14  1  0.75000000  0.05418620  0.62123904  1
  S  S15  1  0.25000000  0.94581380  0.37876096  1
  S  S16  1  0.25000000  0.19960732  0.22887139  1
  S  S17  1  0.75000000  0.80039268  0.77112861  1
  S  S18  1  0.75000000  0.69960732  0.27112861  1
  S  S19  1  0.25000000  0.30039268  0.72887139  1
