# generated using pymatgen
data_Np2O5
_symmetry_space_group_name_H-M   'P 1'
_cell_length_a   6.62427544
_cell_length_b   8.08550887
_cell_length_c   9.30741057
_cell_angle_alpha   116.01572231
_cell_angle_beta   89.74196264
_cell_angle_gamma   90.00353491
_symmetry_Int_Tables_number   1
_chemical_formula_structural   Np2O5
_chemical_formula_sum   'Np8 O20'
_cell_volume   447.99303845
_cell_formula_units_Z   4
loop_
 _symmetry_equiv_pos_site_id
 _symmetry_equiv_pos_as_xyz
  1  'x, y, z'
loop_
 _atom_site_type_symbol
 _atom_site_label
 _atom_site_symmetry_multiplicity
 _atom_site_fract_x
 _atom_site_fract_y
 _atom_site_fract_z
 _atom_site_occupancy
  Np  Np0  1  0.71018295  0.75043925  0.75057427  1
  Np  Np1  1  0.25000113  0.00000644  0.75000633  1
  Np  Np2  1  0.25000352  0.50000840  0.75000447  1
  Np  Np3  1  0.21016124  0.75040547  0.25056304  1
  Np  Np4  1  0.28983655  0.24957145  0.24942248  1
  Np  Np5  1  0.74999927  -0.00000813  0.24999746  1
  Np  Np6  1  0.74999626  0.49999171  0.24999602  1
  Np  Np7  1  0.78982052  0.24957658  0.74942649  1
  O  O8  1  0.64807565  0.25059621  0.25157636  1
  O  O9  1  0.28361451  0.35715126  0.47494261  1
  O  O10  1  0.71638782  0.64289049  0.52506330  1
  O  O11  1  0.21450577  0.85828807  0.47605669  1
  O  O12  1  0.35193119  0.74940460  0.74844011  1
  O  O13  1  0.28549210  0.14168945  0.02392208  1
  O  O14  1  0.21639063  0.64282557  0.02503505  1
  O  O15  1  0.78360584  0.35715901  0.97496044  1
  O  O16  1  0.45384623  0.96568931  0.26005996  1
  O  O17  1  0.04592526  0.46610877  0.25976105  1
  O  O18  1  0.04615582  0.03430133  0.23994976  1
  O  O19  1  0.45406408  0.53387446  0.24024242  1
  O  O20  1  0.78548213  0.14168961  0.52395019  1
  O  O21  1  0.54593035  0.46612141  0.75976062  1
  O  O22  1  0.95408001  0.53388796  0.74022536  1
  O  O23  1  0.54615842  0.03430417  0.73993934  1
  O  O24  1  0.14807530  0.25060344  0.75155936  1
  O  O25  1  0.71451997  0.85831100  0.97607324  1
  O  O26  1  0.85192081  0.74939359  0.24842607  1
  O  O27  1  0.95383769  0.96571513  0.76006741  1
