# generated using pymatgen
data_OsO2
_symmetry_space_group_name_H-M   'P 1'
_cell_length_a   3.20912377
_cell_length_b   4.47820955
_cell_length_c   4.47820955
_cell_angle_alpha   90.00000000
_cell_angle_beta   90.00000000
_cell_angle_gamma   90.00000000
_symmetry_Int_Tables_number   1
_chemical_formula_structural   OsO2
_chemical_formula_sum   'Os2 O4'
_cell_volume   64.35692585
_cell_formula_units_Z   2
loop_
 _symmetry_equiv_pos_site_id
 _symmetry_equiv_pos_as_xyz
  1  'x, y, z'
loop_
 _atom_site_type_symbol
 _atom_site_label
 _atom_site_symmetry_multiplicity
 _atom_site_fract_x
 _atom_site_fract_y
 _atom_site_fract_z
 _atom_site_occupancy
  Os  Os0  1  -0.00000000  0.00000000  0.00000000  1
  Os  Os1  1  0.50000000  0.50000000  0.50000000  1
  O  O2  1  0.00000000  0.30825528  0.30825528  1
  O  O3  1  0.50000000  0.19174472  0.80825528  1
  O  O4  1  0.50000000  0.80825528  0.19174472  1
  O  O5  1  0.00000000  0.69174472  0.69174472  1
