# generated using pymatgen
data_PIr2
_symmetry_space_group_name_H-M   'P 1'
_cell_length_a   3.92973604
_cell_length_b   3.92973669
_cell_length_c   3.92973549
_cell_angle_alpha   59.99998458
_cell_angle_beta   59.99997894
_cell_angle_gamma   60.00000617
_symmetry_Int_Tables_number   1
_chemical_formula_structural   PIr2
_chemical_formula_sum   'P1 Ir2'
_cell_volume   42.91163411
_cell_formula_units_Z   1
loop_
 _symmetry_equiv_pos_site_id
 _symmetry_equiv_pos_as_xyz
  1  'x, y, z'
loop_
 _atom_site_type_symbol
 _atom_site_label
 _atom_site_symmetry_multiplicity
 _atom_site_fract_x
 _atom_site_fract_y
 _atom_site_fract_z
 _atom_site_occupancy
  P  P0  1  -0.00000000  0.00000000  0.00000000  1
  Ir  Ir1  1  0.75000000  0.75000000  0.75000000  1
  Ir  Ir2  1  0.25000000  0.25000000  0.25000000  1
