# generated using pymatgen
data_P4O9
_symmetry_space_group_name_H-M   'P 1'
_cell_length_a   9.94965766
_cell_length_b   9.94965718
_cell_length_c   9.94965757
_cell_angle_alpha   57.81622561
_cell_angle_beta   57.81621777
_cell_angle_gamma   57.81622954
_symmetry_Int_Tables_number   1
_chemical_formula_structural   P4O9
_chemical_formula_sum   'P16 O36'
_cell_volume   661.55783079
_cell_formula_units_Z   4
loop_
 _symmetry_equiv_pos_site_id
 _symmetry_equiv_pos_as_xyz
  1  'x, y, z'
loop_
 _atom_site_type_symbol
 _atom_site_label
 _atom_site_symmetry_multiplicity
 _atom_site_fract_x
 _atom_site_fract_y
 _atom_site_fract_z
 _atom_site_occupancy
  P  P0  1  0.57380309  0.57380309  0.57380309  1
  P  P1  1  0.92619691  0.92619691  0.92619691  1
  P  P2  1  0.42619691  0.42619691  0.42619691  1
  P  P3  1  0.07380309  0.07380309  0.07380309  1
  P  P4  1  0.80268380  0.72971919  0.47976787  1
  P  P5  1  0.47976787  0.80268380  0.72971919  1
  P  P6  1  0.72971919  0.47976787  0.80268380  1
  P  P7  1  0.77028081  0.69731620  0.02023213  1
  P  P8  1  0.02023213  0.77028081  0.69731620  1
  P  P9  1  0.69731620  0.02023213  0.77028081  1
  P  P10  1  0.19731620  0.27028081  0.52023213  1
  P  P11  1  0.52023213  0.19731620  0.27028081  1
  P  P12  1  0.27028081  0.52023213  0.19731620  1
  P  P13  1  0.22971919  0.30268380  0.97976787  1
  P  P14  1  0.97976787  0.22971919  0.30268380  1
  P  P15  1  0.30268380  0.97976787  0.22971919  1
  O  O16  1  0.72646283  0.65917151  0.43774007  1
  O  O17  1  0.43774007  0.72646283  0.65917151  1
  O  O18  1  0.65917151  0.43774007  0.72646283  1
  O  O19  1  0.84082849  0.77353717  0.06225993  1
  O  O20  1  0.06225993  0.84082849  0.77353717  1
  O  O21  1  0.77353717  0.06225993  0.84082849  1
  O  O22  1  0.27353717  0.34082849  0.56225993  1
  O  O23  1  0.56225993  0.27353717  0.34082849  1
  O  O24  1  0.34082849  0.56225993  0.27353717  1
  O  O25  1  0.15917151  0.22646283  0.93774007  1
  O  O26  1  0.93774007  0.15917151  0.22646283  1
  O  O27  1  0.22646283  0.93774007  0.15917151  1
  O  O28  1  0.85723836  0.57328693  0.63848546  1
  O  O29  1  0.63848546  0.85723836  0.57328693  1
  O  O30  1  0.57328693  0.63848546  0.85723836  1
  O  O31  1  0.92671307  0.64276164  0.86151454  1
  O  O32  1  0.86151454  0.92671307  0.64276164  1
  O  O33  1  0.64276164  0.86151454  0.92671307  1
  O  O34  1  0.14276164  0.42671307  0.36151454  1
  O  O35  1  0.36151454  0.14276164  0.42671307  1
  O  O36  1  0.42671307  0.36151454  0.14276164  1
  O  O37  1  0.07328693  0.35723836  0.13848546  1
  O  O38  1  0.13848546  0.07328693  0.35723836  1
  O  O39  1  0.35723836  0.13848546  0.07328693  1
  O  O40  1  0.93599535  0.79576361  0.34767902  1
  O  O41  1  0.34767902  0.93599535  0.79576361  1
  O  O42  1  0.79576361  0.34767902  0.93599535  1
  O  O43  1  0.70423639  0.56400465  0.15232098  1
  O  O44  1  0.15232098  0.70423639  0.56400465  1
  O  O45  1  0.56400465  0.15232098  0.70423639  1
  O  O46  1  0.06400465  0.20423639  0.65232098  1
  O  O47  1  0.65232098  0.06400465  0.20423639  1
  O  O48  1  0.20423639  0.65232098  0.06400465  1
  O  O49  1  0.29576361  0.43599535  0.84767902  1
  O  O50  1  0.84767902  0.29576361  0.43599535  1
  O  O51  1  0.43599535  0.84767902  0.29576361  1
