# generated using pymatgen
data_P2Pd
_symmetry_space_group_name_H-M   'P 1'
_cell_length_a   4.52167176
_cell_length_b   4.52167265
_cell_length_c   5.80845228
_cell_angle_alpha   106.26746372
_cell_angle_beta   111.90394945
_cell_angle_gamma   99.26182709
_symmetry_Int_Tables_number   1
_chemical_formula_structural   P2Pd
_chemical_formula_sum   'P4 Pd2'
_cell_volume   100.96585045
_cell_formula_units_Z   2
loop_
 _symmetry_equiv_pos_site_id
 _symmetry_equiv_pos_as_xyz
  1  'x, y, z'
loop_
 _atom_site_type_symbol
 _atom_site_label
 _atom_site_symmetry_multiplicity
 _atom_site_fract_x
 _atom_site_fract_y
 _atom_site_fract_z
 _atom_site_occupancy
  P  P0  1  0.02358970  0.06130202  0.33398822  1
  P  P1  1  0.22731480  0.68960348  0.16601178  1
  P  P2  1  0.77268520  0.31039652  0.83398822  1
  P  P3  1  0.97641030  0.93869798  0.66601178  1
  Pd  Pd4  1  0.50000000  0.50000000  0.50000000  1
  Pd  Pd5  1  0.50000000  -0.00000000  0.00000000  1
