# generated using pymatgen
data_P2Rh
_symmetry_space_group_name_H-M   'P 1'
_cell_length_a   5.76141099
_cell_length_b   5.80324068
_cell_length_c   5.85388684
_cell_angle_alpha   90.00000000
_cell_angle_beta   112.35849940
_cell_angle_gamma   90.00000000
_symmetry_Int_Tables_number   1
_chemical_formula_structural   P2Rh
_chemical_formula_sum   'P8 Rh4'
_cell_volume   181.00969001
_cell_formula_units_Z   4
loop_
 _symmetry_equiv_pos_site_id
 _symmetry_equiv_pos_as_xyz
  1  'x, y, z'
loop_
 _atom_site_type_symbol
 _atom_site_label
 _atom_site_symmetry_multiplicity
 _atom_site_fract_x
 _atom_site_fract_y
 _atom_site_fract_z
 _atom_site_occupancy
  P  P0  1  0.16021099  0.88037240  0.86684988  1
  P  P1  1  0.83978901  0.38037240  0.63315012  1
  P  P2  1  0.83978901  0.11962760  0.13315012  1
  P  P3  1  0.16021099  0.61962760  0.36684988  1
  P  P4  1  0.33428622  0.37789471  0.18728979  1
  P  P5  1  0.66571378  0.87789471  0.31271021  1
  P  P6  1  0.66571378  0.62210529  0.81271021  1
  P  P7  1  0.33428622  0.12210529  0.68728979  1
  Rh  Rh8  1  0.27213106  0.49825090  0.78975188  1
  Rh  Rh9  1  0.72786894  0.99825090  0.71024812  1
  Rh  Rh10  1  0.72786894  0.50174910  0.21024812  1
  Rh  Rh11  1  0.27213106  0.00174910  0.28975188  1
