# generated using pymatgen
data_PaCl4
_symmetry_space_group_name_H-M   'P 1'
_cell_length_a   7.06478320
_cell_length_b   7.06408000
_cell_length_c   7.06478327
_cell_angle_alpha   106.95176318
_cell_angle_beta   106.95063638
_cell_angle_gamma   114.64255529
_symmetry_Int_Tables_number   1
_chemical_formula_structural   PaCl4
_chemical_formula_sum   'Pa2 Cl8'
_cell_volume   269.72662153
_cell_formula_units_Z   2
loop_
 _symmetry_equiv_pos_site_id
 _symmetry_equiv_pos_as_xyz
  1  'x, y, z'
loop_
 _atom_site_type_symbol
 _atom_site_label
 _atom_site_symmetry_multiplicity
 _atom_site_fract_x
 _atom_site_fract_y
 _atom_site_fract_z
 _atom_site_occupancy
  Pa  Pa0  1  0.87499576  0.12500798  0.75001122  1
  Pa  Pa1  1  0.12500424  0.87499202  0.24998878  1
  Cl  Cl2  1  0.19666476  0.25875567  0.56209191  1
  Cl  Cl3  1  0.63475392  0.19705802  0.43831638  1
  Cl  Cl4  1  0.36524608  0.80294198  0.56168362  1
  Cl  Cl5  1  0.80333524  0.74124433  0.43790809  1
  Cl  Cl6  1  0.80316172  0.36502927  0.06186755  1
  Cl  Cl7  1  0.74125837  0.80294198  0.93769490  1
  Cl  Cl8  1  0.19683828  0.63497073  0.93813245  1
  Cl  Cl9  1  0.25874163  0.19705802  0.06230510  1
