# generated using pymatgen
data_Pa3Si
_symmetry_space_group_name_H-M   'P 1'
_cell_length_a   4.44077462
_cell_length_b   4.44151938
_cell_length_c   4.44355087
_cell_angle_alpha   89.99829279
_cell_angle_beta   90.00188281
_cell_angle_gamma   90.00098247
_symmetry_Int_Tables_number   1
_chemical_formula_structural   Pa3Si
_chemical_formula_sum   'Pa3 Si1'
_cell_volume   87.64364878
_cell_formula_units_Z   1
loop_
 _symmetry_equiv_pos_site_id
 _symmetry_equiv_pos_as_xyz
  1  'x, y, z'
loop_
 _atom_site_type_symbol
 _atom_site_label
 _atom_site_symmetry_multiplicity
 _atom_site_fract_x
 _atom_site_fract_y
 _atom_site_fract_z
 _atom_site_occupancy
  Pa  Pa0  1  0.99999730  0.50000296  0.50000004  1
  Pa  Pa1  1  0.49999809  0.99999801  0.50000004  1
  Pa  Pa2  1  0.50000438  0.49999981  0.00000076  1
  Si  Si3  1  0.00000023  0.00000022  0.99999917  1
