# generated using pymatgen
data_PaH3
_symmetry_space_group_name_H-M   'P 1'
_cell_length_a   6.70599047
_cell_length_b   6.71743547
_cell_length_c   6.71744221
_cell_angle_alpha   90.00000000
_cell_angle_beta   90.00000000
_cell_angle_gamma   90.00000000
_symmetry_Int_Tables_number   1
_chemical_formula_structural   PaH3
_chemical_formula_sum   'Pa8 H24'
_cell_volume   302.60101049
_cell_formula_units_Z   8
loop_
 _symmetry_equiv_pos_site_id
 _symmetry_equiv_pos_as_xyz
  1  'x, y, z'
loop_
 _atom_site_type_symbol
 _atom_site_label
 _atom_site_symmetry_multiplicity
 _atom_site_fract_x
 _atom_site_fract_y
 _atom_site_fract_z
 _atom_site_occupancy
  Pa  Pa0  1  -0.00000000  0.00000000  -0.00000000  1
  Pa  Pa1  1  0.50000000  0.50000000  0.50000000  1
  Pa  Pa2  1  0.25001683  0.00000000  0.50000000  1
  Pa  Pa3  1  0.74998317  0.00000000  0.50000000  1
  Pa  Pa4  1  -0.00000000  0.50000000  0.24904309  1
  Pa  Pa5  1  -0.00000000  0.50000000  0.75095691  1
  Pa  Pa6  1  0.50000000  0.74904750  -0.00000000  1
  Pa  Pa7  1  0.50000000  0.25095250  -0.00000000  1
  H  H8  1  -0.00000000  0.15497051  0.30351168  1
  H  H9  1  0.50000000  0.19648381  0.65496923  1
  H  H10  1  0.50000000  0.80351619  0.34503077  1
  H  H11  1  0.80375617  0.65464240  0.50000000  1
  H  H12  1  0.19624383  0.65464240  0.50000000  1
  H  H13  1  0.34562684  0.50000000  0.80363321  1
  H  H14  1  0.65437316  0.50000000  0.80363321  1
  H  H15  1  0.30375007  0.00000000  0.15463458  1
  H  H16  1  0.15438315  0.30359982  -0.00000000  1
  H  H17  1  0.84561685  0.69640018  -0.00000000  1
  H  H18  1  0.30375007  0.00000000  0.84536542  1
  H  H19  1  0.84561685  0.30359982  -0.00000000  1
  H  H20  1  0.69624993  0.00000000  0.15463458  1
  H  H21  1  0.69624993  0.00000000  0.84536542  1
  H  H22  1  0.15438315  0.69640018  -0.00000000  1
  H  H23  1  -0.00000000  0.84502949  0.69648832  1
  H  H24  1  -0.00000000  0.15497051  0.69648832  1
  H  H25  1  -0.00000000  0.84502949  0.30351168  1
  H  H26  1  0.65437316  0.50000000  0.19636779  1
  H  H27  1  0.34562684  0.50000000  0.19636779  1
  H  H28  1  0.80375617  0.34535760  0.50000000  1
  H  H29  1  0.19624383  0.34535760  0.50000000  1
  H  H30  1  0.50000000  0.80351619  0.65496923  1
  H  H31  1  0.50000000  0.19648381  0.34503077  1
