# generated using pymatgen
data_PmB3
_symmetry_space_group_name_H-M   'P 1'
_cell_length_a   5.57774899
_cell_length_b   5.57774900
_cell_length_c   3.46183303
_cell_angle_alpha   90.00000000
_cell_angle_beta   90.00000000
_cell_angle_gamma   120.00000594
_symmetry_Int_Tables_number   1
_chemical_formula_structural   PmB3
_chemical_formula_sum   'Pm2 B6'
_cell_volume   93.27272310
_cell_formula_units_Z   2
loop_
 _symmetry_equiv_pos_site_id
 _symmetry_equiv_pos_as_xyz
  1  'x, y, z'
loop_
 _atom_site_type_symbol
 _atom_site_label
 _atom_site_symmetry_multiplicity
 _atom_site_fract_x
 _atom_site_fract_y
 _atom_site_fract_z
 _atom_site_occupancy
  Pm  Pm0  1  0.66666600  0.33333300  0.25000100  1
  Pm  Pm1  1  0.33333300  0.66666600  0.75000100  1
  B  B2  1  0.89324039  0.10675861  0.75000100  1
  B  B3  1  0.21351821  0.10675861  0.75000100  1
  B  B4  1  0.89323939  0.78647979  0.75000100  1
  B  B5  1  0.10675861  0.89324039  0.25000100  1
  B  B6  1  0.78647979  0.89324039  0.25000100  1
  B  B7  1  0.10675861  0.21351821  0.25000100  1
