# generated using pymatgen
data_PmS2
_symmetry_space_group_name_H-M   'P 1'
_cell_length_a   4.01685066
_cell_length_b   8.01506533
_cell_length_c   8.06869607
_cell_angle_alpha   89.89100325
_cell_angle_beta   89.99993430
_cell_angle_gamma   90.00039042
_symmetry_Int_Tables_number   1
_chemical_formula_structural   PmS2
_chemical_formula_sum   'Pm4 S8'
_cell_volume   259.77378548
_cell_formula_units_Z   4
loop_
 _symmetry_equiv_pos_site_id
 _symmetry_equiv_pos_as_xyz
  1  'x, y, z'
loop_
 _atom_site_type_symbol
 _atom_site_label
 _atom_site_symmetry_multiplicity
 _atom_site_fract_x
 _atom_site_fract_y
 _atom_site_fract_z
 _atom_site_occupancy
  Pm  Pm0  1  0.28925170  0.37066127  0.27570878  1
  Pm  Pm1  1  0.78925110  0.12933905  0.72429053  1
  Pm  Pm2  1  0.71074890  0.62933805  0.72429053  1
  Pm  Pm3  1  0.21074930  0.87066127  0.27570878  1
  S  S4  1  0.84479744  0.39237722  0.00293934  1
  S  S5  1  0.34479330  0.10762449  0.99706100  1
  S  S6  1  0.15520170  0.60762249  0.99706000  1
  S  S7  1  0.65520556  0.89237522  0.00293834  1
  S  S8  1  0.26141384  0.37435952  0.63255046  1
  S  S9  1  0.76141373  0.12564043  0.36744888  1
  S  S10  1  0.73858627  0.62564043  0.36744888  1
  S  S11  1  0.23858616  0.87435952  0.63255046  1
