# generated using pymatgen
data_PrS2
_symmetry_space_group_name_H-M   'P 1'
_cell_length_a   4.10661074
_cell_length_b   8.08922397
_cell_length_c   16.33887093
_cell_angle_alpha   90.00000000
_cell_angle_beta   90.00000000
_cell_angle_gamma   90.00000000
_symmetry_Int_Tables_number   1
_chemical_formula_structural   PrS2
_chemical_formula_sum   'Pr8 S16'
_cell_volume   542.76575760
_cell_formula_units_Z   8
loop_
 _symmetry_equiv_pos_site_id
 _symmetry_equiv_pos_as_xyz
  1  'x, y, z'
loop_
 _atom_site_type_symbol
 _atom_site_label
 _atom_site_symmetry_multiplicity
 _atom_site_fract_x
 _atom_site_fract_y
 _atom_site_fract_z
 _atom_site_occupancy
  Pr  Pr0  1  0.21801038  0.12914621  0.38802660  1
  Pr  Pr1  1  0.71801038  0.37085479  0.61197340  1
  Pr  Pr2  1  0.28198962  0.62914521  0.11197340  1
  Pr  Pr3  1  0.78198962  0.87085479  0.88802660  1
  Pr  Pr4  1  0.78198962  0.87085479  0.61197340  1
  Pr  Pr5  1  0.28198962  0.62914521  0.38802660  1
  Pr  Pr6  1  0.71801038  0.37085479  0.88802660  1
  Pr  Pr7  1  0.21801038  0.12914621  0.11197340  1
  S  S8  1  0.74034958  0.37471766  0.43355824  1
  S  S9  1  0.24034958  0.12528234  0.56644176  1
  S  S10  1  0.75965042  0.87471766  0.06644176  1
  S  S11  1  0.25965042  0.62528234  0.93355824  1
  S  S12  1  0.25965042  0.62528234  0.56644176  1
  S  S13  1  0.75965042  0.87471766  0.43355824  1
  S  S14  1  0.24034958  0.12528234  0.93355824  1
  S  S15  1  0.74034958  0.37471766  0.06644176  1
  S  S16  1  0.14187942  0.39132401  0.25000000  1
  S  S17  1  0.64187942  0.10867599  0.75000000  1
  S  S18  1  0.35812058  0.89132401  0.25000000  1
  S  S19  1  0.85812058  0.60867599  0.75000000  1
  S  S20  1  0.66341855  0.09939898  0.25000000  1
  S  S21  1  0.16341855  0.40060102  0.75000000  1
  S  S22  1  0.83658145  0.59939898  0.25000000  1
  S  S23  1  0.33658145  0.90060102  0.75000000  1
