# generated using pymatgen
data_Pu2O3
_symmetry_space_group_name_H-M   'P 1'
_cell_length_a   9.50399653
_cell_length_b   9.49906087
_cell_length_c   9.49925444
_cell_angle_alpha   109.43135895
_cell_angle_beta   109.26867199
_cell_angle_gamma   109.75474634
_symmetry_Int_Tables_number   1
_chemical_formula_structural   Pu2O3
_chemical_formula_sum   'Pu16 O24'
_cell_volume   659.82372537
_cell_formula_units_Z   8
loop_
 _symmetry_equiv_pos_site_id
 _symmetry_equiv_pos_as_xyz
  1  'x, y, z'
loop_
 _atom_site_type_symbol
 _atom_site_label
 _atom_site_symmetry_multiplicity
 _atom_site_fract_x
 _atom_site_fract_y
 _atom_site_fract_z
 _atom_site_occupancy
  Pu  Pu0  1  0.22688240  0.75008364  0.97696459  1
  Pu  Pu1  1  0.97669075  0.22695477  0.75007458  1
  Pu  Pu2  1  0.77311963  0.24991364  0.02303641  1
  Pu  Pu3  1  0.25017228  0.02316971  0.77316460  1
  Pu  Pu4  1  0.72728198  0.75018994  0.47672719  1
  Pu  Pu5  1  0.74983287  0.97683676  0.22684088  1
  Pu  Pu6  1  0.24985142  0.52297562  0.27333699  1
  Pu  Pu7  1  0.75014824  0.47701890  0.72666002  1
  Pu  Pu8  1  -0.00000323  0.50000322  0.49999589  1
  Pu  Pu9  1  0.27271111  0.24980796  0.52326521  1
  Pu  Pu10  1  0.52293082  0.27313545  0.24998754  1
  Pu  Pu11  1  0.47707331  0.72686948  0.75001667  1
  Pu  Pu12  1  0.02330538  0.77304246  0.24992050  1
  Pu  Pu13  1  0.99999547  -0.00000155  0.99999699  1
  Pu  Pu14  1  0.50000166  -0.00000460  0.49999853  1
  Pu  Pu15  1  0.50000376  0.50000643  0.00000744  1
  O  O16  1  0.26037894  0.99263819  0.52588472  1
  O  O17  1  0.76033516  0.23424393  0.26732326  1
  O  O18  1  0.23545959  0.26781838  0.76107298  1
  O  O19  1  0.50663682  0.76759635  0.53230386  1
  O  O20  1  0.76491860  0.53360034  0.50710700  1
  O  O21  1  0.26454282  0.02585870  0.03189437  1
  O  O22  1  0.03330551  0.26594007  0.02565472  1
  O  O23  1  0.47348197  0.74244560  0.00715027  1
  O  O24  1  0.73486539  0.24194997  0.76848883  1
  O  O25  1  0.46666722  0.49258967  0.23253612  1
  O  O26  1  0.02654742  0.03333891  0.26880339  1
  O  O27  1  0.76455069  0.73219449  0.23893581  1
  O  O28  1  0.99408329  0.52564750  0.26119375  1
  O  O29  1  0.73545389  0.97414206  0.96811739  1
  O  O30  1  0.23506525  0.46639774  0.49288590  1
  O  O31  1  0.53332627  0.50741719  0.76746357  1
  O  O32  1  0.00591843  0.47434848  0.73879413  1
  O  O33  1  0.97344983  0.96665838  0.73118311  1
  O  O34  1  0.73961896  0.00736039  0.47411221  1
  O  O35  1  0.96669862  0.73405843  0.97434606  1
  O  O36  1  0.26514193  0.75803910  0.23151460  1
  O  O37  1  0.49335213  0.23239092  0.46769130  1
  O  O38  1  0.52653054  0.25756426  0.99286646  1
  O  O39  1  0.23967186  0.76576111  0.73268317  1
