# generated using pymatgen
data_PuCl2
_symmetry_space_group_name_H-M   'P 1'
_cell_length_a   7.06082976
_cell_length_b   7.06127622
_cell_length_c   3.69463307
_cell_angle_alpha   90.01176035
_cell_angle_beta   89.99964570
_cell_angle_gamma   90.00048761
_symmetry_Int_Tables_number   1
_chemical_formula_structural   PuCl2
_chemical_formula_sum   'Pu2 Cl4'
_cell_volume   184.20874563
_cell_formula_units_Z   2
loop_
 _symmetry_equiv_pos_site_id
 _symmetry_equiv_pos_as_xyz
  1  'x, y, z'
loop_
 _atom_site_type_symbol
 _atom_site_label
 _atom_site_symmetry_multiplicity
 _atom_site_fract_x
 _atom_site_fract_y
 _atom_site_fract_z
 _atom_site_occupancy
  Pu  Pu0  1  0.00000108  -0.00000079  -0.00001089  1
  Pu  Pu1  1  0.50000090  0.49999883  0.50000678  1
  Cl  Cl2  1  0.28155879  0.28155911  0.99991635  1
  Cl  Cl3  1  0.71843794  0.71844396  0.00008555  1
  Cl  Cl4  1  0.78160642  0.21837147  0.50008579  1
  Cl  Cl5  1  0.21839887  0.78162942  0.49991843  1
