# generated using pymatgen
data_Pu2S3
_symmetry_space_group_name_H-M   'P 1'
_cell_length_a   7.07398171
_cell_length_b   7.07398109
_cell_length_c   7.40461513
_cell_angle_alpha   118.53358140
_cell_angle_beta   61.46642367
_cell_angle_gamma   119.99999260
_symmetry_Int_Tables_number   1
_chemical_formula_structural   Pu2S3
_chemical_formula_sum   'Pu4 S6'
_cell_volume   267.66646056
_cell_formula_units_Z   2
loop_
 _symmetry_equiv_pos_site_id
 _symmetry_equiv_pos_as_xyz
  1  'x, y, z'
loop_
 _atom_site_type_symbol
 _atom_site_label
 _atom_site_symmetry_multiplicity
 _atom_site_fract_x
 _atom_site_fract_y
 _atom_site_fract_z
 _atom_site_occupancy
  Pu  Pu0  1  0.64766306  0.35233794  0.05701281  1
  Pu  Pu1  1  0.85233694  0.14766206  0.44298619  1
  Pu  Pu2  1  0.14766206  0.85233694  0.55701281  1
  Pu  Pu3  1  0.35233894  0.64766306  0.94298619  1
  S  S4  1  0.95525658  0.45525658  0.25000000  1
  S  S5  1  0.54474242  0.74999900  0.25000000  1
  S  S6  1  0.24999900  0.04474242  0.25000000  1
  S  S7  1  0.74999900  0.95525758  0.75000100  1
  S  S8  1  0.45525658  0.25000000  0.75000100  1
  S  S9  1  0.04474342  0.54474342  0.75000100  1
