# generated using pymatgen
data_Pu2C3
_symmetry_space_group_name_H-M   'P 1'
_cell_length_a   7.07698433
_cell_length_b   7.07723997
_cell_length_c   7.07628914
_cell_angle_alpha   109.47610742
_cell_angle_beta   109.46212947
_cell_angle_gamma   109.47314245
_symmetry_Int_Tables_number   1
_chemical_formula_structural   Pu2C3
_chemical_formula_sum   'Pu8 C12'
_cell_volume   272.84001403
_cell_formula_units_Z   4
loop_
 _symmetry_equiv_pos_site_id
 _symmetry_equiv_pos_as_xyz
  1  'x, y, z'
loop_
 _atom_site_type_symbol
 _atom_site_label
 _atom_site_symmetry_multiplicity
 _atom_site_fract_x
 _atom_site_fract_y
 _atom_site_fract_z
 _atom_site_occupancy
  Pu  Pu0  1  0.59641995  0.59647890  0.59642728  1
  Pu  Pu1  1  0.40350033  0.49994071  -0.00003933  1
  Pu  Pu2  1  0.49999262  0.99991849  0.40355365  1
  Pu  Pu3  1  0.00004553  0.40354415  0.49995498  1
  Pu  Pu4  1  0.50003554  0.99994590  0.90343660  1
  Pu  Pu5  1  -0.00000866  0.90353872  0.49997326  1
  Pu  Pu6  1  0.90357588  0.50003825  0.00003636  1
  Pu  Pu7  1  0.09643279  0.09657749  0.09648761  1
  C  C8  1  0.75000858  0.79015945  0.04005016  1
  C  C9  1  0.74992010  0.95978363  0.20992701  1
  C  C10  1  0.29018289  0.25002887  0.54019349  1
  C  C11  1  0.54024453  0.29014643  0.25005904  1
  C  C12  1  0.20979688  0.75002730  0.95986485  1
  C  C13  1  0.95986156  0.20981879  0.75002829  1
  C  C14  1  0.25009406  0.70988986  0.45998342  1
  C  C15  1  0.70984460  0.45988516  0.25000173  1
  C  C16  1  0.25003198  0.54019551  0.29006259  1
  C  C17  1  0.45969847  0.24987636  0.70975850  1
  C  C18  1  0.04016435  0.75000090  0.79017813  1
  C  C19  1  0.79015903  0.04020714  0.75005839  1
