# generated using pymatgen
data_RbNa3
_symmetry_space_group_name_H-M   'P 1'
_cell_length_a   8.63217047
_cell_length_b   8.63216910
_cell_length_c   6.36998176
_cell_angle_alpha   90.00000000
_cell_angle_beta   90.00000000
_cell_angle_gamma   119.99999719
_symmetry_Int_Tables_number   1
_chemical_formula_structural   RbNa3
_chemical_formula_sum   'Rb2 Na6'
_cell_volume   411.06337184
_cell_formula_units_Z   2
loop_
 _symmetry_equiv_pos_site_id
 _symmetry_equiv_pos_as_xyz
  1  'x, y, z'
loop_
 _atom_site_type_symbol
 _atom_site_label
 _atom_site_symmetry_multiplicity
 _atom_site_fract_x
 _atom_site_fract_y
 _atom_site_fract_z
 _atom_site_occupancy
  Rb  Rb0  1  0.33333300  0.66666700  0.75000000  1
  Rb  Rb1  1  0.66666600  0.33333300  0.25000100  1
  Na  Na2  1  0.14303089  0.28606177  0.25000100  1
  Na  Na3  1  0.71393823  0.85696811  0.25000100  1
  Na  Na4  1  0.14302989  0.85696811  0.25000100  1
  Na  Na5  1  0.85696911  0.71393723  0.75000000  1
  Na  Na6  1  0.28606177  0.14303089  0.75000000  1
  Na  Na7  1  0.85696811  0.14303089  0.75000000  1
