# generated using pymatgen
data_Rb3Na
_symmetry_space_group_name_H-M   'P 1'
_cell_length_a   9.60008612
_cell_length_b   9.60008612
_cell_length_c   7.65744731
_cell_angle_alpha   90.00000000
_cell_angle_beta   90.00000000
_cell_angle_gamma   120.00000466
_symmetry_Int_Tables_number   1
_chemical_formula_structural   Rb3Na
_chemical_formula_sum   'Rb6 Na2'
_cell_volume   611.17402182
_cell_formula_units_Z   2
loop_
 _symmetry_equiv_pos_site_id
 _symmetry_equiv_pos_as_xyz
  1  'x, y, z'
loop_
 _atom_site_type_symbol
 _atom_site_label
 _atom_site_symmetry_multiplicity
 _atom_site_fract_x
 _atom_site_fract_y
 _atom_site_fract_z
 _atom_site_occupancy
  Rb  Rb0  1  0.82700016  0.17299984  0.75000000  1
  Rb  Rb1  1  0.34599968  0.17299984  0.75000000  1
  Rb  Rb2  1  0.82700016  0.65400032  0.75000000  1
  Rb  Rb3  1  0.17299984  0.82700016  0.25000000  1
  Rb  Rb4  1  0.65400032  0.82700016  0.25000000  1
  Rb  Rb5  1  0.17299984  0.34599968  0.25000000  1
  Na  Na6  1  0.66666700  0.33333300  0.25000000  1
  Na  Na7  1  0.33333300  0.66666700  0.75000000  1
