# generated using pymatgen
data_ReCl6
_symmetry_space_group_name_H-M   'P 1'
_cell_length_a   6.09547998
_cell_length_b   6.09581851
_cell_length_c   6.57298954
_cell_angle_alpha   62.38112695
_cell_angle_beta   62.38929935
_cell_angle_gamma   60.01622511
_symmetry_Int_Tables_number   1
_chemical_formula_structural   ReCl6
_chemical_formula_sum   'Re1 Cl6'
_cell_volume   178.68794857
_cell_formula_units_Z   1
loop_
 _symmetry_equiv_pos_site_id
 _symmetry_equiv_pos_as_xyz
  1  'x, y, z'
loop_
 _atom_site_type_symbol
 _atom_site_label
 _atom_site_symmetry_multiplicity
 _atom_site_fract_x
 _atom_site_fract_y
 _atom_site_fract_z
 _atom_site_occupancy
  Re  Re0  1  -0.00000000  0.00000000  -0.00000000  1
  Cl  Cl1  1  0.38209292  0.76891015  0.76294159  1
  Cl  Cl2  1  0.76892427  0.08595267  0.76291896  1
  Cl  Cl3  1  0.08604240  0.38202382  0.76295125  1
  Cl  Cl4  1  0.61790708  0.23108985  0.23705841  1
  Cl  Cl5  1  0.23107573  0.91404733  0.23708104  1
  Cl  Cl6  1  0.91395760  0.61797618  0.23704875  1
