# generated using pymatgen
data_ReP3
_symmetry_space_group_name_H-M   'P 1'
_cell_length_a   3.14850216
_cell_length_b   5.12485766
_cell_length_c   15.36635237
_cell_angle_alpha   90.00000000
_cell_angle_beta   90.00000000
_cell_angle_gamma   90.00000000
_symmetry_Int_Tables_number   1
_chemical_formula_structural   ReP3
_chemical_formula_sum   'Re4 P12'
_cell_volume   247.94570579
_cell_formula_units_Z   4
loop_
 _symmetry_equiv_pos_site_id
 _symmetry_equiv_pos_as_xyz
  1  'x, y, z'
loop_
 _atom_site_type_symbol
 _atom_site_label
 _atom_site_symmetry_multiplicity
 _atom_site_fract_x
 _atom_site_fract_y
 _atom_site_fract_z
 _atom_site_occupancy
  Re  Re0  1  0.25000000  0.35070642  0.64998892  1
  Re  Re1  1  0.25000000  0.14929358  0.14998892  1
  Re  Re2  1  0.75000000  0.64929358  0.35001108  1
  Re  Re3  1  0.75000000  0.85070642  0.85001108  1
  P  P4  1  0.25000000  0.14614305  0.51260440  1
  P  P5  1  0.25000000  0.35385695  0.01260440  1
  P  P6  1  0.75000000  0.85385695  0.48739560  1
  P  P7  1  0.75000000  0.64614305  0.98739560  1
  P  P8  1  0.25000000  0.17871307  0.88202676  1
  P  P9  1  0.25000000  0.32128693  0.38202676  1
  P  P10  1  0.75000000  0.82128693  0.11797324  1
  P  P11  1  0.75000000  0.67871307  0.61797324  1
  P  P12  1  0.25000000  0.52223719  0.79340293  1
  P  P13  1  0.25000000  0.97776281  0.29340293  1
  P  P14  1  0.75000000  0.47776281  0.20659707  1
  P  P15  1  0.75000000  0.02223719  0.70659707  1
