# generated using pymatgen
data_Re2P5
_symmetry_space_group_name_H-M   'P 1'
_cell_length_a   7.34845154
_cell_length_b   8.24614248
_cell_length_c   8.36406247
_cell_angle_alpha   69.76738796
_cell_angle_beta   67.92563003
_cell_angle_gamma   87.06885658
_symmetry_Int_Tables_number   1
_chemical_formula_structural   Re2P5
_chemical_formula_sum   'Re8 P20'
_cell_volume   438.88367631
_cell_formula_units_Z   4
loop_
 _symmetry_equiv_pos_site_id
 _symmetry_equiv_pos_as_xyz
  1  'x, y, z'
loop_
 _atom_site_type_symbol
 _atom_site_label
 _atom_site_symmetry_multiplicity
 _atom_site_fract_x
 _atom_site_fract_y
 _atom_site_fract_z
 _atom_site_occupancy
  Re  Re0  1  0.57436088  0.42139585  0.14262356  1
  Re  Re1  1  0.42564012  0.57860515  0.85737544  1
  Re  Re2  1  0.05701791  0.08803675  0.09792840  1
  Re  Re3  1  0.94298109  0.91196325  0.90207260  1
  Re  Re4  1  0.17826221  0.52062589  0.25036867  1
  Re  Re5  1  0.82173779  0.47937411  0.74963133  1
  Re  Re6  1  0.69575073  0.85785086  0.29001873  1
  Re  Re7  1  0.30424927  0.14214914  0.70998127  1
  P  P8  1  0.02237893  0.78237221  0.16809194  1
  P  P9  1  0.97762107  0.21762679  0.83190806  1
  P  P10  1  0.72998669  0.15587572  0.26034233  1
  P  P11  1  0.27001331  0.84412228  0.73965867  1
  P  P12  1  0.53498819  0.30828671  0.94391671  1
  P  P13  1  0.46501181  0.69171329  0.05608229  1
  P  P14  1  0.71902917  0.74717669  0.59660401  1
  P  P15  1  0.28096983  0.25282231  0.40339599  1
  P  P16  1  0.86363382  0.95982422  0.63158021  1
  P  P17  1  0.13636518  0.04017478  0.36842079  1
  P  P18  1  0.68200440  0.16476004  0.53467131  1
  P  P19  1  0.31799460  0.83523996  0.46532969  1
  P  P20  1  0.60085120  0.91394699  0.04668077  1
  P  P21  1  0.39915080  0.08605401  0.95331623  1
  P  P22  1  0.16105647  0.58394107  0.52098066  1
  P  P23  1  0.83894253  0.41605893  0.47902034  1
  P  P24  1  0.37572679  0.45197685  0.63538927  1
  P  P25  1  0.62427321  0.54802215  0.36461173  1
  P  P26  1  0.89212611  0.58380198  0.95227342  1
  P  P27  1  0.10787489  0.41619802  0.04772558  1
