# generated using pymatgen
data_SO3
_symmetry_space_group_name_H-M   'P 1'
_cell_length_a   5.16848274
_cell_length_b   10.73614708
_cell_length_c   12.30442788
_cell_angle_alpha   90.00000000
_cell_angle_beta   90.00000000
_cell_angle_gamma   90.00000000
_symmetry_Int_Tables_number   1
_chemical_formula_structural   SO3
_chemical_formula_sum   'S12 O36'
_cell_volume   682.76766904
_cell_formula_units_Z   12
loop_
 _symmetry_equiv_pos_site_id
 _symmetry_equiv_pos_as_xyz
  1  'x, y, z'
loop_
 _atom_site_type_symbol
 _atom_site_label
 _atom_site_symmetry_multiplicity
 _atom_site_fract_x
 _atom_site_fract_y
 _atom_site_fract_z
 _atom_site_occupancy
  S  S0  1  0.20689705  0.12836529  0.08168796  1
  S  S1  1  0.70689705  0.87163471  0.91831204  1
  S  S2  1  0.70689705  0.37163471  0.58168796  1
  S  S3  1  0.20689705  0.62836529  0.41831204  1
  S  S4  1  0.03994402  0.30625307  0.92317204  1
  S  S5  1  0.53994402  0.69374693  0.07682796  1
  S  S6  1  0.53994402  0.19374693  0.42317204  1
  S  S7  1  0.03994402  0.80625307  0.57682796  1
  S  S8  1  0.99020169  0.36040305  0.14908201  1
  S  S9  1  0.49020169  0.63959595  0.85091799  1
  S  S10  1  0.49020169  0.13959695  0.64908201  1
  S  S11  1  0.99020169  0.86040405  0.35091799  1
  O  O12  1  0.13536954  0.00436795  0.10008429  1
  O  O13  1  0.63536954  0.99563205  0.89991571  1
  O  O14  1  0.63536954  0.49563205  0.60008429  1
  O  O15  1  0.13536954  0.50436795  0.39991571  1
  O  O16  1  0.46142765  0.17372210  0.08461228  1
  O  O17  1  0.96142765  0.82627790  0.91538772  1
  O  O18  1  0.96142765  0.32627790  0.58461228  1
  O  O19  1  0.46142765  0.67372210  0.41538772  1
  O  O20  1  0.07154622  0.16394048  0.96622055  1
  O  O21  1  0.57154622  0.83605952  0.03377945  1
  O  O22  1  0.57154622  0.33605952  0.46622055  1
  O  O23  1  0.07154622  0.66394048  0.53377945  1
  O  O24  1  0.86235766  0.29868638  0.83774002  1
  O  O25  1  0.36235766  0.70131362  0.16225998  1
  O  O26  1  0.36235766  0.20131362  0.33774002  1
  O  O27  1  0.86235766  0.79868638  0.66225998  1
  O  O28  1  0.28420170  0.36321618  0.91690333  1
  O  O29  1  0.78420170  0.63678382  0.08309667  1
  O  O30  1  0.78420170  0.13678382  0.41690333  1
  O  O31  1  0.28420170  0.86321618  0.58309667  1
  O  O32  1  0.87662564  0.36244038  0.02511007  1
  O  O33  1  0.37662564  0.63755962  0.97488993  1
  O  O34  1  0.37662564  0.13755962  0.52511007  1
  O  O35  1  0.87662564  0.86244038  0.47488993  1
  O  O36  1  0.23348750  0.41828059  0.15119148  1
  O  O37  1  0.73348750  0.58171941  0.84880852  1
  O  O38  1  0.73348750  0.08171941  0.65119148  1
  O  O39  1  0.23348750  0.91828059  0.34880852  1
  O  O40  1  0.78120622  0.38962166  0.21654608  1
  O  O41  1  0.28120622  0.61037834  0.78345392  1
  O  O42  1  0.28120622  0.11037834  0.71654608  1
  O  O43  1  0.78120622  0.88962166  0.28345392  1
  O  O44  1  0.02103412  0.20966442  0.16027642  1
  O  O45  1  0.52103412  0.79033558  0.83972358  1
  O  O46  1  0.52103412  0.29033558  0.66027642  1
  O  O47  1  0.02103412  0.70966442  0.33972358  1
