# generated using pymatgen
data_SF6
_symmetry_space_group_name_H-M   'P 1'
_cell_length_a   8.10486379
_cell_length_b   8.10490983
_cell_length_c   4.61275213
_cell_angle_alpha   90.00005953
_cell_angle_beta   89.99980489
_cell_angle_gamma   119.99950198
_symmetry_Int_Tables_number   1
_chemical_formula_structural   SF6
_chemical_formula_sum   'S3 F18'
_cell_volume   262.41390087
_cell_formula_units_Z   3
loop_
 _symmetry_equiv_pos_site_id
 _symmetry_equiv_pos_as_xyz
  1  'x, y, z'
loop_
 _atom_site_type_symbol
 _atom_site_label
 _atom_site_symmetry_multiplicity
 _atom_site_fract_x
 _atom_site_fract_y
 _atom_site_fract_z
 _atom_site_occupancy
  S  S0  1  0.66665691  0.33333584  0.44662591  1
  S  S1  1  0.33334112  0.66666228  0.55337288  1
  S  S2  1  0.00000127  0.00000220  0.00000354  1
  F  F3  1  0.24154440  0.75845939  0.35591930  1
  F  F4  1  0.24154736  0.48309895  0.35593924  1
  F  F5  1  0.51690785  0.75845779  0.35593636  1
  F  F6  1  0.09175366  0.90824567  0.80256657  1
  F  F7  1  0.09175036  0.18349660  0.80256633  1
  F  F8  1  0.81649598  0.90824846  0.80256957  1
  F  F9  1  0.18349768  0.09175016  0.19743638  1
  F  F10  1  0.90824869  0.81649694  0.19743249  1
  F  F11  1  0.90824530  0.09175211  0.19743520  1
  F  F12  1  0.42508509  0.57491994  0.75103803  1
  F  F13  1  0.42508678  0.85018383  0.75104767  1
  F  F14  1  0.14981910  0.57491810  0.75104585  1
  F  F15  1  0.85018253  0.42508336  0.24895146  1
  F  F16  1  0.57491517  0.14981789  0.24895112  1
  F  F17  1  0.57491556  0.42508056  0.24895994  1
  F  F18  1  0.75845634  0.24154155  0.64407907  1
  F  F19  1  0.75845476  0.51690459  0.64406175  1
  F  F20  1  0.48309409  0.24154379  0.64406132  1
