# generated using pymatgen
data_SO3
_symmetry_space_group_name_H-M   'P 1'
_cell_length_a   4.06113924
_cell_length_b   6.13893357
_cell_length_c   9.09377172
_cell_angle_alpha   109.81072269
_cell_angle_beta   90.00000000
_cell_angle_gamma   90.00000000
_symmetry_Int_Tables_number   1
_chemical_formula_structural   SO3
_chemical_formula_sum   'S4 O12'
_cell_volume   213.29967022
_cell_formula_units_Z   4
loop_
 _symmetry_equiv_pos_site_id
 _symmetry_equiv_pos_as_xyz
  1  'x, y, z'
loop_
 _atom_site_type_symbol
 _atom_site_label
 _atom_site_symmetry_multiplicity
 _atom_site_fract_x
 _atom_site_fract_y
 _atom_site_fract_z
 _atom_site_occupancy
  S  S0  1  0.52512470  0.38398063  0.20603270  1
  S  S1  1  0.47487530  0.61601937  0.79396730  1
  S  S2  1  0.97487530  0.88398063  0.70603270  1
  S  S3  1  0.02512470  0.11601937  0.29396730  1
  O  O4  1  0.30830019  0.65469794  0.93555438  1
  O  O5  1  0.14104433  0.08677807  0.79304611  1
  O  O6  1  0.64104433  0.41322193  0.70695389  1
  O  O7  1  0.19169981  0.15469794  0.43555438  1
  O  O8  1  0.72548896  0.83540424  0.83151764  1
  O  O9  1  0.80830019  0.84530206  0.56444562  1
  O  O10  1  0.35895567  0.58677807  0.29304611  1
  O  O11  1  0.27451104  0.16459576  0.16848236  1
  O  O12  1  0.85895567  0.91322193  0.20695389  1
  O  O13  1  0.77451104  0.33540424  0.33151764  1
  O  O14  1  0.69169981  0.34530206  0.06444562  1
  O  O15  1  0.22548896  0.66459576  0.66848236  1
