# generated using pymatgen
data_Sb3N5
_symmetry_space_group_name_H-M   'P 1'
_cell_length_a   3.99174078
_cell_length_b   10.53318861
_cell_length_c   10.35799238
_cell_angle_alpha   90.00000000
_cell_angle_beta   90.00000000
_cell_angle_gamma   90.00000000
_symmetry_Int_Tables_number   1
_chemical_formula_structural   Sb3N5
_chemical_formula_sum   'Sb12 N20'
_cell_volume   435.50964634
_cell_formula_units_Z   4
loop_
 _symmetry_equiv_pos_site_id
 _symmetry_equiv_pos_as_xyz
  1  'x, y, z'
loop_
 _atom_site_type_symbol
 _atom_site_label
 _atom_site_symmetry_multiplicity
 _atom_site_fract_x
 _atom_site_fract_y
 _atom_site_fract_z
 _atom_site_occupancy
  Sb  Sb0  1  0.00000000  0.81655984  0.25000000  1
  Sb  Sb1  1  -0.00000000  0.18344016  0.75000000  1
  Sb  Sb2  1  0.50000000  0.31655984  0.25000000  1
  Sb  Sb3  1  0.50000000  0.68344016  0.75000000  1
  Sb  Sb4  1  -0.00000000  0.13598527  0.43594908  1
  Sb  Sb5  1  0.00000000  0.86401473  0.56405092  1
  Sb  Sb6  1  0.00000000  0.13598527  0.06405092  1
  Sb  Sb7  1  0.00000000  0.86401473  0.93594908  1
  Sb  Sb8  1  0.50000000  0.63598527  0.43594908  1
  Sb  Sb9  1  0.50000000  0.36401473  0.56405092  1
  Sb  Sb10  1  0.50000000  0.63598527  0.06405092  1
  Sb  Sb11  1  0.50000000  0.36401473  0.93594908  1
  N  N12  1  -0.00000000  0.24047092  0.25000000  1
  N  N13  1  0.00000000  0.75952808  0.75000000  1
  N  N14  1  0.50000000  0.74047192  0.25000000  1
  N  N15  1  0.50000000  0.25952808  0.75000000  1
  N  N16  1  0.00000000  0.95023965  0.38706573  1
  N  N17  1  -0.00000000  0.04976035  0.61293427  1
  N  N18  1  -0.00000000  0.95023965  0.11293427  1
  N  N19  1  -0.00000000  0.04976035  0.88706573  1
  N  N20  1  0.50000000  0.45023965  0.38706573  1
  N  N21  1  0.50000000  0.54976035  0.61293427  1
  N  N22  1  0.50000000  0.45023965  0.11293427  1
  N  N23  1  0.50000000  0.54976035  0.88706573  1
  N  N24  1  0.00000000  0.69675373  0.42564097  1
  N  N25  1  0.00000000  0.30324627  0.57435903  1
  N  N26  1  -0.00000000  0.69675373  0.07435903  1
  N  N27  1  -0.00000000  0.30324627  0.92564097  1
  N  N28  1  0.50000000  0.19675373  0.42564097  1
  N  N29  1  0.50000000  0.80324627  0.57435903  1
  N  N30  1  0.50000000  0.19675373  0.07435903  1
  N  N31  1  0.50000000  0.80324627  0.92564097  1
