# generated using pymatgen
data_SiO2
_symmetry_space_group_name_H-M   'P 1'
_cell_length_a   9.60251180
_cell_length_b   9.60251180
_cell_length_c   9.60251180
_cell_angle_alpha   60.00000000
_cell_angle_beta   60.00000000
_cell_angle_gamma   60.00000000
_symmetry_Int_Tables_number   1
_chemical_formula_structural   SiO2
_chemical_formula_sum   'Si10 O20'
_cell_volume   626.09401272
_cell_formula_units_Z   10
loop_
 _symmetry_equiv_pos_site_id
 _symmetry_equiv_pos_as_xyz
  1  'x, y, z'
loop_
 _atom_site_type_symbol
 _atom_site_label
 _atom_site_symmetry_multiplicity
 _atom_site_fract_x
 _atom_site_fract_y
 _atom_site_fract_z
 _atom_site_occupancy
  Si  Si0  1  0.11424597  0.11424597  0.11424597  1
  Si  Si1  1  0.88575403  0.34273590  0.88575403  1
  Si  Si2  1  0.88575403  0.88575403  0.34273590  1
  Si  Si3  1  0.34273590  0.88575403  0.88575403  1
  Si  Si4  1  0.11424597  0.11424597  0.65726410  1
  Si  Si5  1  0.65726410  0.11424597  0.11424597  1
  Si  Si6  1  0.11424597  0.65726410  0.11424597  1
  Si  Si7  1  0.88575403  0.88575403  0.88575403  1
  Si  Si8  1  0.75000000  0.75000000  0.75000000  1
  Si  Si9  1  0.25000000  0.25000000  0.25000000  1
  O  O10  1  -0.00000000  0.00000000  0.27491043  1
  O  O11  1  -0.00000000  0.27491043  0.00000000  1
  O  O12  1  0.72508957  -0.00000000  0.27491043  1
  O  O13  1  0.00000000  0.72508957  0.27491043  1
  O  O14  1  0.27491043  -0.00000000  0.00000000  1
  O  O15  1  0.27491043  0.72508957  0.00000000  1
  O  O16  1  0.72508957  0.27491043  -0.00000000  1
  O  O17  1  0.27491043  0.00000000  0.72508957  1
  O  O18  1  0.72508957  0.00000000  -0.00000000  1
  O  O19  1  0.00000000  0.72508957  -0.00000000  1
  O  O20  1  -0.00000000  0.27491043  0.72508957  1
  O  O21  1  0.00000000  -0.00000000  0.72508957  1
  O  O22  1  0.18195553  0.18195553  0.18195553  1
  O  O23  1  0.81804447  0.54586659  0.81804447  1
  O  O24  1  0.81804447  0.81804447  0.54586659  1
  O  O25  1  0.54586659  0.81804447  0.81804447  1
  O  O26  1  0.18195553  0.18195553  0.45413341  1
  O  O27  1  0.45413341  0.18195553  0.18195553  1
  O  O28  1  0.18195553  0.45413341  0.18195553  1
  O  O29  1  0.81804447  0.81804447  0.81804447  1
