# generated using pymatgen
data_SiO2
_symmetry_space_group_name_H-M   'P 1'
_cell_length_a   8.77357494
_cell_length_b   8.77357435
_cell_length_c   8.77357503
_cell_angle_alpha   109.47122221
_cell_angle_beta   109.47122084
_cell_angle_gamma   109.47121857
_symmetry_Int_Tables_number   1
_chemical_formula_structural   SiO2
_chemical_formula_sum   'Si12 O24'
_cell_volume   519.88568072
_cell_formula_units_Z   12
loop_
 _symmetry_equiv_pos_site_id
 _symmetry_equiv_pos_as_xyz
  1  'x, y, z'
loop_
 _atom_site_type_symbol
 _atom_site_label
 _atom_site_symmetry_multiplicity
 _atom_site_fract_x
 _atom_site_fract_y
 _atom_site_fract_z
 _atom_site_occupancy
  Si  Si0  1  0.87500000  0.12500000  0.75000000  1
  Si  Si1  1  0.62500000  0.75000000  0.37500000  1
  Si  Si2  1  0.25000000  0.62500000  0.37500000  1
  Si  Si3  1  0.12500000  0.75000000  0.87500000  1
  Si  Si4  1  0.25000000  0.12500000  0.87500000  1
  Si  Si5  1  0.87500000  0.25000000  0.12500000  1
  Si  Si6  1  0.75000000  0.87500000  0.12500000  1
  Si  Si7  1  0.75000000  0.37500000  0.62500000  1
  Si  Si8  1  0.62500000  0.37500000  0.25000000  1
  Si  Si9  1  0.12500000  0.87500000  0.25000000  1
  Si  Si10  1  0.37500000  0.25000000  0.62500000  1
  Si  Si11  1  0.37500000  0.62500000  0.75000000  1
  O  O12  1  0.65727393  0.31454686  0.40727393  1
  O  O13  1  0.59272607  0.34272607  0.68545314  1
  O  O14  1  0.84272607  0.25000000  0.65727393  1
  O  O15  1  0.09272607  0.40727393  0.25000000  1
  O  O16  1  0.81454686  0.15727393  0.90727393  1
  O  O17  1  0.40727393  0.25000000  0.09272607  1
  O  O18  1  0.68545314  0.59272607  0.34272607  1
  O  O19  1  0.34272607  0.15727393  0.75000000  1
  O  O20  1  0.15727393  0.90727393  0.81454686  1
  O  O21  1  0.31454686  0.40727393  0.65727393  1
  O  O22  1  0.15727393  0.75000000  0.34272607  1
  O  O23  1  0.90727393  0.59272607  0.75000000  1
  O  O24  1  0.25000000  0.65727393  0.84272607  1
  O  O25  1  0.75000000  0.34272607  0.15727393  1
  O  O26  1  0.75000000  0.90727393  0.59272607  1
  O  O27  1  0.40727393  0.65727393  0.31454686  1
  O  O28  1  0.25000000  0.09272607  0.40727393  1
  O  O29  1  0.84272607  0.09272607  0.18545314  1
  O  O30  1  0.59272607  0.75000000  0.90727393  1
  O  O31  1  0.65727393  0.84272607  0.25000000  1
  O  O32  1  0.09272607  0.18545314  0.84272607  1
  O  O33  1  0.90727393  0.81454686  0.15727393  1
  O  O34  1  0.18545314  0.84272607  0.09272607  1
  O  O35  1  0.34272607  0.68545314  0.59272607  1
