# generated using pymatgen
data_SiO2
_symmetry_space_group_name_H-M   'P 1'
_cell_length_a   13.07401179
_cell_length_b   13.07401179
_cell_length_c   4.99308042
_cell_angle_alpha   90.00000000
_cell_angle_beta   90.00000000
_cell_angle_gamma   90.00000000
_symmetry_Int_Tables_number   1
_chemical_formula_structural   SiO2
_chemical_formula_sum   'Si17 O34'
_cell_volume   853.46615911
_cell_formula_units_Z   17
loop_
 _symmetry_equiv_pos_site_id
 _symmetry_equiv_pos_as_xyz
  1  'x, y, z'
loop_
 _atom_site_type_symbol
 _atom_site_label
 _atom_site_symmetry_multiplicity
 _atom_site_fract_x
 _atom_site_fract_y
 _atom_site_fract_z
 _atom_site_occupancy
  Si  Si0  1  0.21508042  0.04945751  0.73241715  1
  Si  Si1  1  0.04945751  0.78491958  0.26758285  1
  Si  Si2  1  0.95054249  0.21508042  0.26758285  1
  Si  Si3  1  0.78491958  0.95054249  0.73241715  1
  Si  Si4  1  0.83259451  0.28863488  0.76554916  1
  Si  Si5  1  0.28863488  0.16740549  0.23445084  1
  Si  Si6  1  0.71136512  0.83259451  0.23445084  1
  Si  Si7  1  0.16740549  0.71136512  0.76554916  1
  Si  Si8  1  0.65182273  0.14841540  0.75634165  1
  Si  Si9  1  0.14841540  0.34817727  0.24365835  1
  Si  Si10  1  0.85158460  0.65182273  0.24365835  1
  Si  Si11  1  0.34817727  0.85158460  0.75634165  1
  Si  Si12  1  0.51823673  0.11563210  0.27681697  1
  Si  Si13  1  0.11563210  0.48176327  0.72318303  1
  Si  Si14  1  0.88436790  0.51823673  0.72318303  1
  Si  Si15  1  0.48176327  0.88436790  0.27681697  1
  Si  Si16  1  -0.00000000  0.00000000  0.50000000  1
  O  O17  1  0.09397783  0.03395051  0.68993332  1
  O  O18  1  0.03395051  0.90602217  0.31006668  1
  O  O19  1  0.96604949  0.09397783  0.31006668  1
  O  O20  1  0.90602217  0.96604949  0.68993332  1
  O  O21  1  0.25805106  0.13825519  0.53816563  1
  O  O22  1  0.13825519  0.74194894  0.46183437  1
  O  O23  1  0.86174481  0.25805106  0.46183437  1
  O  O24  1  0.74194894  0.86174481  0.53816563  1
  O  O25  1  0.23653607  0.08376455  0.03790708  1
  O  O26  1  0.08376455  0.76346393  0.96209292  1
  O  O27  1  0.91623545  0.23653607  0.96209292  1
  O  O28  1  0.76346393  0.91623545  0.03790708  1
  O  O29  1  0.27325483  0.94364562  0.66547939  1
  O  O30  1  0.94364562  0.72674517  0.33452061  1
  O  O31  1  0.05635438  0.27325483  0.33452061  1
  O  O32  1  0.72674517  0.05635438  0.66547939  1
  O  O33  1  0.71939341  0.24725951  0.83305080  1
  O  O34  1  0.24725951  0.28060659  0.16694920  1
  O  O35  1  0.75274049  0.71939341  0.16694920  1
  O  O36  1  0.28060659  0.75274049  0.83305080  1
  O  O37  1  0.83113148  0.41105458  0.79760942  1
  O  O38  1  0.41105458  0.16886852  0.20239058  1
  O  O39  1  0.58894542  0.83113148  0.20239058  1
  O  O40  1  0.16886852  0.58894542  0.79760942  1
  O  O41  1  0.57554704  0.17730072  0.51314096  1
  O  O42  1  0.17730072  0.42445296  0.48685904  1
  O  O43  1  0.82269928  0.57554704  0.48685904  1
  O  O44  1  0.42445296  0.82269928  0.51314096  1
  O  O45  1  0.58787286  0.11180055  0.01280598  1
  O  O46  1  0.11180055  0.41212714  0.98719402  1
  O  O47  1  0.88819945  0.58787286  0.98719402  1
  O  O48  1  0.41212714  0.88819945  0.01280598  1
  O  O49  1  0.50000000  0.00000000  0.38230565  1
  O  O50  1  -0.00000000  0.50000000  0.61769435  1
