# generated using pymatgen
data_SiGe
_symmetry_space_group_name_H-M   'P 1'
_cell_length_a   3.90445060
_cell_length_b   3.90445060
_cell_length_c   6.45078300
_cell_angle_alpha   90.00000000
_cell_angle_beta   90.00000000
_cell_angle_gamma   119.99997623
_symmetry_Int_Tables_number   1
_chemical_formula_structural   SiGe
_chemical_formula_sum   'Si2 Ge2'
_cell_volume   85.16536904
_cell_formula_units_Z   2
loop_
 _symmetry_equiv_pos_site_id
 _symmetry_equiv_pos_as_xyz
  1  'x, y, z'
loop_
 _atom_site_type_symbol
 _atom_site_label
 _atom_site_symmetry_multiplicity
 _atom_site_fract_x
 _atom_site_fract_y
 _atom_site_fract_z
 _atom_site_occupancy
  Si  Si0  1  0.00000000  0.00000000  0.37460700  1
  Si  Si1  1  0.33333400  0.66666600  0.87460800  1
  Ge  Ge2  1  0.00000000  0.00000000  0.00039200  1
  Ge  Ge3  1  0.33333400  0.66666600  0.50039200  1
