# generated using pymatgen
data_SiH8
_symmetry_space_group_name_H-M   'P 1'
_cell_length_a   5.53813922
_cell_length_b   5.55217752
_cell_length_c   7.59529810
_cell_angle_alpha   90.00000000
_cell_angle_beta   90.00000000
_cell_angle_gamma   90.00000000
_symmetry_Int_Tables_number   1
_chemical_formula_structural   SiH8
_chemical_formula_sum   'Si2 H16'
_cell_volume   233.54578634
_cell_formula_units_Z   2
loop_
 _symmetry_equiv_pos_site_id
 _symmetry_equiv_pos_as_xyz
  1  'x, y, z'
loop_
 _atom_site_type_symbol
 _atom_site_label
 _atom_site_symmetry_multiplicity
 _atom_site_fract_x
 _atom_site_fract_y
 _atom_site_fract_z
 _atom_site_occupancy
  Si  Si0  1  0.50000000  0.24762760  0.85853300  1
  Si  Si1  1  0.00000000  0.75237240  0.35853300  1
  H  H2  1  0.50000000  0.46506189  0.97153279  1
  H  H3  1  0.00000000  0.53493811  0.47153279  1
  H  H4  1  0.50000000  0.02885360  0.97013512  1
  H  H5  1  0.00000000  0.97114640  0.47013512  1
  H  H6  1  0.71821092  0.24770207  0.74582286  1
  H  H7  1  0.28178908  0.24770207  0.74582286  1
  H  H8  1  0.78178908  0.75229793  0.24582286  1
  H  H9  1  0.21821092  0.75229793  0.24582286  1
  H  H10  1  0.50000000  0.28684856  0.31243280  1
  H  H11  1  0.00000000  0.71315144  0.81243280  1
  H  H12  1  0.50000000  0.22962045  0.40089126  1
  H  H13  1  0.00000000  0.77037955  0.90089126  1
  H  H14  1  0.50000000  0.75873540  0.65183227  1
  H  H15  1  0.00000000  0.24126460  0.15183227  1
  H  H16  1  0.50000000  0.70678510  0.56159803  1
  H  H17  1  0.00000000  0.29321490  0.06159803  1
