# generated using pymatgen
data_SiO2
_symmetry_space_group_name_H-M   'P 1'
_cell_length_a   13.81037334
_cell_length_b   13.81037334
_cell_length_c   6.43389135
_cell_angle_alpha   90.00000000
_cell_angle_beta   90.00000000
_cell_angle_gamma   90.00000000
_symmetry_Int_Tables_number   1
_chemical_formula_structural   SiO2
_chemical_formula_sum   'Si20 O40'
_cell_volume   1227.11301103
_cell_formula_units_Z   20
loop_
 _symmetry_equiv_pos_site_id
 _symmetry_equiv_pos_as_xyz
  1  'x, y, z'
loop_
 _atom_site_type_symbol
 _atom_site_label
 _atom_site_symmetry_multiplicity
 _atom_site_fract_x
 _atom_site_fract_y
 _atom_site_fract_z
 _atom_site_occupancy
  Si  Si0  1  0.00000000  0.11527236  0.99502089  1
  Si  Si1  1  0.13472764  0.75000000  0.24502089  1
  Si  Si2  1  0.36527236  0.25000000  0.74502089  1
  Si  Si3  1  0.00000000  0.88472764  0.00497911  1
  Si  Si4  1  0.00000000  0.61527236  0.00497911  1
  Si  Si5  1  0.00000000  0.38472764  0.99502089  1
  Si  Si6  1  0.36527236  0.75000000  0.25497911  1
  Si  Si7  1  0.13472764  0.25000000  0.75497911  1
  Si  Si8  1  0.86527236  0.25000000  0.75497911  1
  Si  Si9  1  0.63472764  0.75000000  0.25497911  1
  Si  Si10  1  0.63472764  0.25000000  0.74502089  1
  Si  Si11  1  0.86527236  0.75000000  0.24502089  1
  Si  Si12  1  0.50000000  0.61527236  0.49502089  1
  Si  Si13  1  0.50000000  0.38472764  0.50497911  1
  Si  Si14  1  0.50000000  0.11527236  0.50497911  1
  Si  Si15  1  0.50000000  0.88472764  0.49502089  1
  Si  Si16  1  0.00000000  0.25000000  0.37500000  1
  Si  Si17  1  0.00000000  0.75000000  0.62500000  1
  Si  Si18  1  0.50000000  0.25000000  0.12500000  1
  Si  Si19  1  0.50000000  0.75000000  0.87500000  1
  O  O20  1  0.00000000  0.00000000  -0.00000000  1
  O  O21  1  0.25000000  0.75000000  0.25000000  1
  O  O22  1  0.25000000  0.25000000  0.75000000  1
  O  O23  1  0.00000000  0.50000000  -0.00000000  1
  O  O24  1  0.75000000  0.25000000  0.75000000  1
  O  O25  1  0.75000000  0.75000000  0.25000000  1
  O  O26  1  0.50000000  0.50000000  0.50000000  1
  O  O27  1  0.50000000  0.00000000  0.50000000  1
  O  O28  1  0.09558200  0.15441800  0.87500000  1
  O  O29  1  0.09558200  0.84558200  0.12500000  1
  O  O30  1  0.40441800  0.15441800  0.62500000  1
  O  O31  1  0.90441800  0.65441800  0.12500000  1
  O  O32  1  0.90441800  0.34558200  0.87500000  1
  O  O33  1  0.40441800  0.84558200  0.37500000  1
  O  O34  1  0.90441800  0.84558200  0.12500000  1
  O  O35  1  0.90441800  0.15441800  0.87500000  1
  O  O36  1  0.59558200  0.84558200  0.37500000  1
  O  O37  1  0.09558200  0.34558200  0.87500000  1
  O  O38  1  0.09558200  0.65441800  0.12500000  1
  O  O39  1  0.59558200  0.15441800  0.62500000  1
  O  O40  1  0.59558200  0.65441800  0.37500000  1
  O  O41  1  0.59558200  0.34558200  0.62500000  1
  O  O42  1  0.40441800  0.34558200  0.62500000  1
  O  O43  1  0.40441800  0.65441800  0.37500000  1
  O  O44  1  0.00000000  0.15434959  0.23125752  1
  O  O45  1  0.09565041  0.75000000  0.48125752  1
  O  O46  1  0.40434959  0.25000000  0.98125752  1
  O  O47  1  0.00000000  0.84565041  0.76874248  1
  O  O48  1  0.00000000  0.65434959  0.76874248  1
  O  O49  1  0.00000000  0.34565041  0.23125752  1
  O  O50  1  0.40434959  0.75000000  0.01874248  1
  O  O51  1  0.09565041  0.25000000  0.51874248  1
  O  O52  1  0.90434959  0.25000000  0.51874248  1
  O  O53  1  0.59565041  0.75000000  0.01874248  1
  O  O54  1  0.59565041  0.25000000  0.98125752  1
  O  O55  1  0.90434959  0.75000000  0.48125752  1
  O  O56  1  0.50000000  0.65434959  0.73125752  1
  O  O57  1  0.50000000  0.34565041  0.26874248  1
  O  O58  1  0.50000000  0.15434959  0.26874248  1
  O  O59  1  0.50000000  0.84565041  0.73125752  1
