# generated using pymatgen
data_SiO2
_symmetry_space_group_name_H-M   'P 1'
_cell_length_a   11.71988930
_cell_length_b   11.71988930
_cell_length_c   11.71988930
_cell_angle_alpha   109.47122063
_cell_angle_beta   109.47122063
_cell_angle_gamma   109.47122063
_symmetry_Int_Tables_number   1
_chemical_formula_structural   SiO2
_chemical_formula_sum   'Si24 O48'
_cell_volume   1239.22063801
_cell_formula_units_Z   24
loop_
 _symmetry_equiv_pos_site_id
 _symmetry_equiv_pos_as_xyz
  1  'x, y, z'
loop_
 _atom_site_type_symbol
 _atom_site_label
 _atom_site_symmetry_multiplicity
 _atom_site_fract_x
 _atom_site_fract_y
 _atom_site_fract_z
 _atom_site_occupancy
  Si  Si0  1  0.71357131  0.78642869  0.25000000  1
  Si  Si1  1  0.46357131  0.25000000  0.03642869  1
  Si  Si2  1  0.03642869  0.07285638  0.78642869  1
  Si  Si3  1  0.42714362  0.46357131  0.71357131  1
  Si  Si4  1  0.25000000  0.03642869  0.46357131  1
  Si  Si5  1  0.78642869  0.03642869  0.07285638  1
  Si  Si6  1  0.46357131  0.71357131  0.42714362  1
  Si  Si7  1  0.25000000  0.71357131  0.78642869  1
  Si  Si8  1  0.78642869  0.25000000  0.71357131  1
  Si  Si9  1  0.07285638  0.78642869  0.03642869  1
  Si  Si10  1  0.71357131  0.42714362  0.46357131  1
  Si  Si11  1  0.03642869  0.46357131  0.25000000  1
  Si  Si12  1  0.28642869  0.21357131  0.75000000  1
  Si  Si13  1  0.53642869  0.75000000  0.96357131  1
  Si  Si14  1  0.96357131  0.92714362  0.21357131  1
  Si  Si15  1  0.57285638  0.53642869  0.28642869  1
  Si  Si16  1  0.75000000  0.96357131  0.53642869  1
  Si  Si17  1  0.21357131  0.96357131  0.92714362  1
  Si  Si18  1  0.53642869  0.28642869  0.57285638  1
  Si  Si19  1  0.75000000  0.28642869  0.21357131  1
  Si  Si20  1  0.21357131  0.75000000  0.28642869  1
  Si  Si21  1  0.92714362  0.21357131  0.96357131  1
  Si  Si22  1  0.28642869  0.57285638  0.53642869  1
  Si  Si23  1  0.96357131  0.53642869  0.75000000  1
  O  O24  1  0.58832678  0.76039874  0.11415109  1
  O  O25  1  0.35375135  0.11415109  0.02582331  1
  O  O26  1  0.14624865  0.17207196  0.76039874  1
  O  O27  1  0.32792804  0.47417669  0.58832678  1
  O  O28  1  0.11415109  0.02582331  0.35375135  1
  O  O29  1  0.76039874  0.14624865  0.17207196  1
  O  O30  1  0.47417669  0.58832678  0.32792804  1
  O  O31  1  0.11415109  0.58832678  0.76039874  1
  O  O32  1  0.76039874  0.11415109  0.58832678  1
  O  O33  1  0.02582331  0.17207196  0.91167322  1
  O  O34  1  0.38584891  0.14624865  0.47417669  1
  O  O35  1  0.47417669  0.38584891  0.14624865  1
  O  O36  1  0.32792804  0.35375135  0.73960126  1
  O  O37  1  0.17207196  0.91167322  0.02582331  1
  O  O38  1  0.73960126  0.32792804  0.35375135  1
  O  O39  1  0.91167322  0.02582331  0.17207196  1
  O  O40  1  0.35375135  0.73960126  0.32792804  1
  O  O41  1  0.14624865  0.47417669  0.38584891  1
  O  O42  1  0.02582331  0.35375135  0.11415109  1
  O  O43  1  0.73960126  0.91167322  0.38584891  1
  O  O44  1  0.17207196  0.76039874  0.14624865  1
  O  O45  1  0.38584891  0.73960126  0.91167322  1
  O  O46  1  0.58832678  0.32792804  0.47417669  1
  O  O47  1  0.91167322  0.38584891  0.73960126  1
  O  O48  1  0.41167322  0.23960126  0.88584891  1
  O  O49  1  0.64624865  0.88584891  0.97417669  1
  O  O50  1  0.85375135  0.82792804  0.23960126  1
  O  O51  1  0.67207196  0.52582331  0.41167322  1
  O  O52  1  0.88584891  0.97417669  0.64624865  1
  O  O53  1  0.23960126  0.85375135  0.82792804  1
  O  O54  1  0.52582331  0.41167322  0.67207196  1
  O  O55  1  0.88584891  0.41167322  0.23960126  1
  O  O56  1  0.23960126  0.88584891  0.41167322  1
  O  O57  1  0.97417669  0.82792804  0.08832678  1
  O  O58  1  0.61415109  0.85375135  0.52582331  1
  O  O59  1  0.52582331  0.61415109  0.85375135  1
  O  O60  1  0.67207196  0.64624865  0.26039874  1
  O  O61  1  0.82792804  0.08832678  0.97417669  1
  O  O62  1  0.26039874  0.67207196  0.64624865  1
  O  O63  1  0.08832678  0.97417669  0.82792804  1
  O  O64  1  0.64624865  0.26039874  0.67207196  1
  O  O65  1  0.85375135  0.52582331  0.61415109  1
  O  O66  1  0.97417669  0.64624865  0.88584891  1
  O  O67  1  0.26039874  0.08832678  0.61415109  1
  O  O68  1  0.82792804  0.23960126  0.85375135  1
  O  O69  1  0.61415109  0.26039874  0.08832678  1
  O  O70  1  0.41167322  0.67207196  0.52582331  1
  O  O71  1  0.08832678  0.61415109  0.26039874  1
