# generated using pymatgen
data_SiPt3
_symmetry_space_group_name_H-M   'P 1'
_cell_length_a   5.56096385
_cell_length_b   5.64928911
_cell_length_c   7.57504311
_cell_angle_alpha   90.00000000
_cell_angle_beta   90.00000000
_cell_angle_gamma   90.00000000
_symmetry_Int_Tables_number   1
_chemical_formula_structural   SiPt3
_chemical_formula_sum   'Si4 Pt12'
_cell_volume   237.97371015
_cell_formula_units_Z   4
loop_
 _symmetry_equiv_pos_site_id
 _symmetry_equiv_pos_as_xyz
  1  'x, y, z'
loop_
 _atom_site_type_symbol
 _atom_site_label
 _atom_site_symmetry_multiplicity
 _atom_site_fract_x
 _atom_site_fract_y
 _atom_site_fract_z
 _atom_site_occupancy
  Si  Si0  1  0.49976590  0.08486699  0.75000000  1
  Si  Si1  1  -0.00023410  0.41513301  0.25000000  1
  Si  Si2  1  0.00023410  0.58486699  0.75000000  1
  Si  Si3  1  0.50023410  0.91513301  0.25000000  1
  Pt  Pt4  1  0.31326564  0.18074838  0.04744968  1
  Pt  Pt5  1  0.81326564  0.31925162  0.95255032  1
  Pt  Pt6  1  0.18673436  0.68074838  0.45255032  1
  Pt  Pt7  1  0.68673436  0.81925162  0.54744968  1
  Pt  Pt8  1  0.68673436  0.81925162  0.95255032  1
  Pt  Pt9  1  0.18673436  0.68074838  0.04744968  1
  Pt  Pt10  1  0.81326564  0.31925162  0.54744968  1
  Pt  Pt11  1  0.31326564  0.18074838  0.45255032  1
  Pt  Pt12  1  0.07724721  0.99501128  0.75000000  1
  Pt  Pt13  1  0.57724721  0.50498872  0.25000000  1
  Pt  Pt14  1  0.42275279  0.49501128  0.75000000  1
  Pt  Pt15  1  0.92275279  0.00498872  0.25000000  1
