# generated using pymatgen
data_SiIr2
_symmetry_space_group_name_H-M   'P 1'
_cell_length_a   3.99197600
_cell_length_b   5.28767911
_cell_length_c   7.68344449
_cell_angle_alpha   89.99888646
_cell_angle_beta   90.00000000
_cell_angle_gamma   90.00000000
_symmetry_Int_Tables_number   1
_chemical_formula_structural   SiIr2
_chemical_formula_sum   'Si4 Ir8'
_cell_volume   162.18435990
_cell_formula_units_Z   4
loop_
 _symmetry_equiv_pos_site_id
 _symmetry_equiv_pos_as_xyz
  1  'x, y, z'
loop_
 _atom_site_type_symbol
 _atom_site_label
 _atom_site_symmetry_multiplicity
 _atom_site_fract_x
 _atom_site_fract_y
 _atom_site_fract_z
 _atom_site_occupancy
  Si  Si0  1  0.75000000  0.20594202  0.60091183  1
  Si  Si1  1  0.75000000  0.70595367  0.89908962  1
  Si  Si2  1  0.25000000  0.79405765  0.39910698  1
  Si  Si3  1  0.25000000  0.29405262  0.10088983  1
  Ir  Ir4  1  0.75000000  0.66022215  0.57420487  1
  Ir  Ir5  1  0.75000000  0.16019607  0.92580608  1
  Ir  Ir6  1  0.25000000  0.33978673  0.42579515  1
  Ir  Ir7  1  0.25000000  0.83979909  0.07420166  1
  Ir  Ir8  1  0.75000000  0.52340146  0.20016239  1
  Ir  Ir9  1  0.75000000  0.02336880  0.29982343  1
  Ir  Ir10  1  0.25000000  0.47662027  0.79983172  1
  Ir  Ir11  1  0.25000000  0.97659949  0.70017645  1
