# generated using pymatgen
data_SiH4
_symmetry_space_group_name_H-M   'P 1'
_cell_length_a   4.95676104
_cell_length_b   7.55604455
_cell_length_c   7.54174201
_cell_angle_alpha   103.40560799
_cell_angle_beta   90.00000000
_cell_angle_gamma   90.00000000
_symmetry_Int_Tables_number   1
_chemical_formula_structural   SiH4
_chemical_formula_sum   'Si4 H16'
_cell_volume   274.76842736
_cell_formula_units_Z   4
loop_
 _symmetry_equiv_pos_site_id
 _symmetry_equiv_pos_as_xyz
  1  'x, y, z'
loop_
 _atom_site_type_symbol
 _atom_site_label
 _atom_site_symmetry_multiplicity
 _atom_site_fract_x
 _atom_site_fract_y
 _atom_site_fract_z
 _atom_site_occupancy
  Si  Si0  1  0.92814948  0.86114827  0.24892646  1
  Si  Si1  1  0.42814948  0.63885173  0.75107354  1
  Si  Si2  1  0.07185052  0.13885173  0.75107354  1
  Si  Si3  1  0.57185052  0.36114827  0.24892646  1
  H  H4  1  0.06441839  0.02025849  0.20542565  1
  H  H5  1  0.56441839  0.47974151  0.79457435  1
  H  H6  1  0.93558161  0.97974151  0.79457435  1
  H  H7  1  0.43558161  0.52025849  0.20542565  1
  H  H8  1  0.56655858  0.20703399  0.08681364  1
  H  H9  1  0.06655858  0.29296601  0.91318636  1
  H  H10  1  0.43344142  0.79296601  0.91318636  1
  H  H11  1  0.93344142  0.70703399  0.08681364  1
  H  H12  1  0.85487773  0.40900181  0.30246828  1
  H  H13  1  0.35487773  0.09099819  0.69753172  1
  H  H14  1  0.14512227  0.59099819  0.69753172  1
  H  H15  1  0.64512227  0.90900181  0.30246828  1
  H  H16  1  0.42962286  0.30814979  0.40152134  1
  H  H17  1  0.92962286  0.19185021  0.59847866  1
  H  H18  1  0.57037714  0.69185021  0.59847866  1
  H  H19  1  0.07037714  0.80814979  0.40152134  1
