# generated using pymatgen
data_Si48O107
_symmetry_space_group_name_H-M   'P 1'
_cell_length_a   17.35864621
_cell_length_b   17.35557037
_cell_length_c   17.34889104
_cell_angle_alpha   89.99997665
_cell_angle_beta   60.01851015
_cell_angle_gamma   119.99416832
_symmetry_Int_Tables_number   1
_chemical_formula_structural   Si48O107
_chemical_formula_sum   'Si48 O107'
_cell_volume   3697.18413456
_cell_formula_units_Z   1
loop_
 _symmetry_equiv_pos_site_id
 _symmetry_equiv_pos_as_xyz
  1  'x, y, z'
loop_
 _atom_site_type_symbol
 _atom_site_label
 _atom_site_symmetry_multiplicity
 _atom_site_fract_x
 _atom_site_fract_y
 _atom_site_fract_z
 _atom_site_occupancy
  Si  Si0  1  0.60752900  0.39209800  0.85684800  1
  Si  Si1  1  0.60752800  0.21543100  0.03562400  1
  Si  Si2  1  0.89242400  0.85675800  0.39211700  1
  Si  Si3  1  0.89242300  0.03566500  0.21546000  1
  Si  Si4  1  0.07237600  0.21561300  0.39213100  1
  Si  Si5  1  0.42758800  0.39204900  0.21555900  1
  Si  Si6  1  0.42758800  0.03553900  0.85685300  1
  Si  Si7  1  0.07237600  0.85676200  0.03549300  1
  Si  Si8  1  0.24886300  0.85677400  0.21557300  1
  Si  Si9  1  0.25113600  0.03557000  0.39211300  1
  Si  Si10  1  0.24886300  0.39208900  0.03556400  1
  Si  Si11  1  0.25113600  0.21556500  0.85675100  1
  Si  Si12  1  0.24886300  0.39208900  0.21557200  1
  Si  Si13  1  0.25113600  0.21556600  0.39211300  1
  Si  Si14  1  0.24886300  0.85677400  0.03556500  1
  Si  Si15  1  0.25113600  0.03557000  0.85675100  1
  Si  Si16  1  0.60752900  0.21543200  0.85684800  1
  Si  Si17  1  0.60752800  0.39209700  0.03562400  1
  Si  Si18  1  0.89242300  0.03566500  0.39211700  1
  Si  Si19  1  0.89242300  0.85675800  0.21546000  1
  Si  Si20  1  0.07237600  0.85676200  0.39213100  1
  Si  Si21  1  0.42758800  0.03553900  0.21556000  1
  Si  Si22  1  0.42758800  0.39204900  0.85685200  1
  Si  Si23  1  0.07237600  0.21561400  0.03549300  1
  Si  Si24  1  0.39252300  0.60793000  0.14318500  1
  Si  Si25  1  0.39252300  0.78459300  0.96429200  1
  Si  Si26  1  0.10753000  0.14318700  0.60792500  1
  Si  Si27  1  0.10753000  0.96434200  0.78454500  1
  Si  Si28  1  0.92759300  0.78440400  0.60803600  1
  Si  Si29  1  0.57240100  0.60789500  0.78448000  1
  Si  Si30  1  0.57240100  0.96450600  0.14311900  1
  Si  Si31  1  0.92759300  0.14319000  0.96437100  1
  Si  Si32  1  0.75113400  0.14319900  0.78450800  1
  Si  Si33  1  0.74890200  0.96446600  0.60799400  1
  Si  Si34  1  0.75113400  0.60793500  0.96435900  1
  Si  Si35  1  0.74890200  0.78443600  0.14310500  1
  Si  Si36  1  0.75113500  0.60793600  0.78450700  1
  Si  Si37  1  0.74890300  0.78443600  0.60799400  1
  Si  Si38  1  0.75113400  0.14319900  0.96435900  1
  Si  Si39  1  0.74890300  0.96446700  0.14310400  1
  Si  Si40  1  0.39252300  0.78459300  0.14318400  1
  Si  Si41  1  0.39252300  0.60793000  0.96429300  1
  Si  Si42  1  0.10752900  0.96434200  0.60792500  1
  Si  Si43  1  0.10752900  0.14318700  0.78454500  1
  Si  Si44  1  0.92759300  0.14318900  0.60803600  1
  Si  Si45  1  0.57240000  0.96450500  0.78448000  1
  Si  Si46  1  0.57240100  0.60789500  0.14311900  1
  Si  Si47  1  0.92759300  0.78440300  0.96437100  1
  O  O48  1  0.50604400  0.36427000  0.14179500  1
  O  O49  1  0.50604400  0.14177400  0.85216100  1
  O  O50  1  0.99385400  0.14167300  0.36434800  1
  O  O51  1  0.99385400  0.85218100  0.14179800  1
  O  O52  1  0.28338900  0.14169500  0.36434000  1
  O  O53  1  0.21656100  0.36423000  0.14172000  1
  O  O54  1  0.21656100  0.85233100  0.14171900  1
  O  O55  1  0.28338800  0.14169400  0.85227100  1
  O  O56  1  0.50604400  0.14177400  0.14179500  1
  O  O57  1  0.99385300  0.85218100  0.36434700  1
  O  O58  1  0.50604300  0.36426900  0.85216100  1
  O  O59  1  0.99385300  0.14167200  0.14179900  1
  O  O60  1  0.49415300  0.63596000  0.85809500  1
  O  O61  1  0.49415400  0.85819400  0.14775200  1
  O  O62  1  0.00603600  0.85816500  0.63580300  1
  O  O63  1  0.00603600  0.14787000  0.85816100  1
  O  O64  1  0.71635200  0.85817500  0.63578300  1
  O  O65  1  0.78375800  0.63593100  0.85812100  1
  O  O66  1  0.78375700  0.14782600  0.85812100  1
  O  O67  1  0.71635300  0.85817600  0.14786500  1
  O  O68  1  0.49415400  0.85819400  0.85809500  1
  O  O69  1  0.00603500  0.14787000  0.63580300  1
  O  O70  1  0.49415400  0.63596000  0.14775100  1
  O  O71  1  0.00603500  0.85816500  0.85816100  1
  O  O72  1  0.35705800  0.03504600  0.32205900  1
  O  O73  1  0.35705700  0.32201200  0.82088300  1
  O  O74  1  0.14291900  0.32204100  0.03502600  1
  O  O75  1  0.14291900  0.82087900  0.32205500  1
  O  O76  1  0.64432900  0.32216400  0.03462900  1
  O  O77  1  0.85589100  0.03507700  0.32205300  1
  O  O78  1  0.85589100  0.82081500  0.32205400  1
  O  O79  1  0.64433000  0.32216500  0.82104200  1
  O  O80  1  0.35705700  0.32201200  0.32206000  1
  O  O81  1  0.14291900  0.82087900  0.03502600  1
  O  O82  1  0.35705700  0.03504600  0.82088300  1
  O  O83  1  0.14291900  0.32204000  0.32205500  1
  O  O84  1  0.64315200  0.96521900  0.67781600  1
  O  O85  1  0.64315300  0.67793300  0.17903200  1
  O  O86  1  0.85686500  0.67784900  0.96523500  1
  O  O87  1  0.85686400  0.17901500  0.67790100  1
  O  O88  1  0.35568200  0.67784100  0.96540300  1
  O  O89  1  0.14442300  0.96541300  0.67778900  1
  O  O90  1  0.14442300  0.17900900  0.67778900  1
  O  O91  1  0.35568200  0.67784100  0.17891600  1
  O  O92  1  0.64315100  0.67793200  0.67781600  1
  O  O93  1  0.85686500  0.17901500  0.96523500  1
  O  O94  1  0.64315200  0.96521900  0.17903300  1
  O  O95  1  0.85686400  0.67784900  0.67790100  1
  O  O96  1  0.75052100  0.87526000  0.87474000  1
  O  O97  1  0.24998500  0.12499200  0.12500800  1
  O  O98  1  0.34732700  0.38132000  0.96607200  1
  O  O99  1  0.34732800  0.96600800  0.18660100  1
  O  O100  1  0.15247700  0.96593900  0.38157300  1
  O  O101  1  0.15247800  0.18653800  0.96594900  1
  O  O102  1  0.93163000  0.96581500  0.38180500  1
  O  O103  1  0.56789500  0.38154500  0.96605300  1
  O  O104  1  0.56789500  0.18635000  0.96605200  1
  O  O105  1  0.93162900  0.96581500  0.18656500  1
  O  O106  1  0.34732700  0.96600800  0.96607200  1
  O  O107  1  0.15247700  0.18653800  0.38157200  1
  O  O108  1  0.34732600  0.38131900  0.18660100  1
  O  O109  1  0.15247800  0.96594000  0.96594900  1
  O  O110  1  0.65244300  0.61840600  0.03403400  1
  O  O111  1  0.65244200  0.03403800  0.81352400  1
  O  O112  1  0.84756800  0.03389300  0.61846700  1
  O  O113  1  0.84756700  0.81367500  0.03396600  1
  O  O114  1  0.06792200  0.03396000  0.61859800  1
  O  O115  1  0.43209200  0.61851500  0.03395400  1
  O  O116  1  0.43209300  0.81357800  0.03395400  1
  O  O117  1  0.06792100  0.03396100  0.81348100  1
  O  O118  1  0.65244200  0.03403800  0.03403500  1
  O  O119  1  0.84756700  0.81367400  0.61846700  1
  O  O120  1  0.65244200  0.61840500  0.81352400  1
  O  O121  1  0.84756700  0.03389300  0.03396700  1
  O  O122  1  0.49972300  0.49998700  0.21215400  1
  O  O123  1  0.49972300  0.99973600  0.78812300  1
  O  O124  1  0.99993100  0.21206800  0.50004700  1
  O  O125  1  0.99993000  0.78786100  0.00002200  1
  O  O126  1  0.21200100  0.99993900  0.50005800  1
  O  O127  1  0.28811900  0.50009500  0.99990600  1
  O  O128  1  0.28811900  0.78802300  0.21197600  1
  O  O129  1  0.21200200  0.21206300  0.78794000  1
  O  O130  1  0.71197500  0.21207200  0.99988200  1
  O  O131  1  0.78793900  0.78780500  0.49997600  1
  O  O132  1  0.71197500  0.49990300  0.78814200  1
  O  O133  1  0.78793800  0.00013300  0.21208600  1
  O  O134  1  0.71197600  0.49990300  0.99988200  1
  O  O135  1  0.78793800  0.00013400  0.49997500  1
  O  O136  1  0.71197600  0.21207200  0.78814200  1
  O  O137  1  0.78793700  0.78780400  0.21208600  1
  O  O138  1  0.49972400  0.99973700  0.21215400  1
  O  O139  1  0.49972400  0.49998700  0.78812200  1
  O  O140  1  0.99993000  0.78786200  0.50004800  1
  O  O141  1  0.99993000  0.21206900  0.00002200  1
  O  O142  1  0.21200100  0.21206300  0.50005900  1
  O  O143  1  0.28811900  0.78802300  0.99990600  1
  O  O144  1  0.28811900  0.50009500  0.21197600  1
  O  O145  1  0.21200100  0.99993900  0.78793900  1
  O  O146  1  0.75008300  0.55176100  0.55156300  1
  O  O147  1  0.75008300  0.19832200  0.19835500  1
  O  O148  1  0.75008300  0.19832200  0.55156300  1
  O  O149  1  0.75008300  0.55176100  0.19835500  1
  O  O150  1  0.60358400  0.80179200  0.44820800  1
  O  O151  1  0.24995600  0.44825600  0.44825200  1
  O  O152  1  0.24995600  0.80170000  0.80179200  1
  O  O153  1  0.24995600  0.80170000  0.44825200  1
  O  O154  1  0.24995600  0.44825500  0.80179200  1
