# generated using pymatgen
data_SiO2
_symmetry_space_group_name_H-M   'P 1'
_cell_length_a   6.91141994
_cell_length_b   6.91141994
_cell_length_c   6.41851438
_cell_angle_alpha   90.00000000
_cell_angle_beta   90.00000000
_cell_angle_gamma   90.00000000
_symmetry_Int_Tables_number   1
_chemical_formula_structural   SiO2
_chemical_formula_sum   'Si5 O10'
_cell_volume   306.59783358
_cell_formula_units_Z   5
loop_
 _symmetry_equiv_pos_site_id
 _symmetry_equiv_pos_as_xyz
  1  'x, y, z'
loop_
 _atom_site_type_symbol
 _atom_site_label
 _atom_site_symmetry_multiplicity
 _atom_site_fract_x
 _atom_site_fract_y
 _atom_site_fract_z
 _atom_site_occupancy
  Si  Si0  1  0.26963233  0.00000000  0.11936938  1
  Si  Si1  1  -0.00000000  0.73036767  0.88063062  1
  Si  Si2  1  -0.00000000  0.26963233  0.88063062  1
  Si  Si3  1  0.73036767  0.00000000  0.11936938  1
  Si  Si4  1  -0.00000000  0.00000000  0.50000000  1
  O  O5  1  0.19170935  0.00000000  0.35642564  1
  O  O6  1  -0.00000000  0.80829065  0.64357436  1
  O  O7  1  -0.00000000  0.19170935  0.64357436  1
  O  O8  1  0.80829065  0.00000000  0.35642564  1
  O  O9  1  0.19112067  0.19112067  0.00000000  1
  O  O10  1  0.19112067  0.80887933  0.00000000  1
  O  O11  1  0.80887933  0.19112067  0.00000000  1
  O  O12  1  0.80887933  0.80887933  0.00000000  1
  O  O13  1  0.50000000  0.00000000  0.12049956  1
  O  O14  1  -0.00000000  0.50000000  0.87950044  1
