# generated using pymatgen
data_Si3Pt2
_symmetry_space_group_name_H-M   'P 1'
_cell_length_a   3.91138822
_cell_length_b   3.91138691
_cell_length_c   12.01426456
_cell_angle_alpha   90.00000000
_cell_angle_beta   90.00000000
_cell_angle_gamma   119.99999414
_symmetry_Int_Tables_number   1
_chemical_formula_structural   Si3Pt2
_chemical_formula_sum   'Si6 Pt4'
_cell_volume   159.18038477
_cell_formula_units_Z   2
loop_
 _symmetry_equiv_pos_site_id
 _symmetry_equiv_pos_as_xyz
  1  'x, y, z'
loop_
 _atom_site_type_symbol
 _atom_site_label
 _atom_site_symmetry_multiplicity
 _atom_site_fract_x
 _atom_site_fract_y
 _atom_site_fract_z
 _atom_site_occupancy
  Si  Si0  1  0.33333300  0.66666700  0.56460365  1
  Si  Si1  1  0.66666700  0.33333300  0.06460365  1
  Si  Si2  1  0.66666700  0.33333300  0.43539635  1
  Si  Si3  1  0.33333300  0.66666700  0.93539635  1
  Si  Si4  1  -0.00000000  -0.00000000  0.25000000  1
  Si  Si5  1  -0.00000000  0.00000000  0.75000000  1
  Pt  Pt6  1  0.33333300  0.66666700  0.36306572  1
  Pt  Pt7  1  0.66666700  0.33333300  0.86306572  1
  Pt  Pt8  1  0.66666700  0.33333300  0.63693428  1
  Pt  Pt9  1  0.33333300  0.66666700  0.13693428  1
