# generated using pymatgen
data_SiO2
_symmetry_space_group_name_H-M   'P 1'
_cell_length_a   7.72233351
_cell_length_b   7.72233351
_cell_length_c   7.72233351
_cell_angle_alpha   109.47122063
_cell_angle_beta   109.47122063
_cell_angle_gamma   109.47122063
_symmetry_Int_Tables_number   1
_chemical_formula_structural   SiO2
_chemical_formula_sum   'Si6 O12'
_cell_volume   354.50614748
_cell_formula_units_Z   6
loop_
 _symmetry_equiv_pos_site_id
 _symmetry_equiv_pos_as_xyz
  1  'x, y, z'
loop_
 _atom_site_type_symbol
 _atom_site_label
 _atom_site_symmetry_multiplicity
 _atom_site_fract_x
 _atom_site_fract_y
 _atom_site_fract_z
 _atom_site_occupancy
  Si  Si0  1  0.50000000  0.75000000  0.25000000  1
  Si  Si1  1  0.75000000  0.50000000  0.25000000  1
  Si  Si2  1  0.25000000  0.75000000  0.50000000  1
  Si  Si3  1  0.25000000  0.50000000  0.75000000  1
  Si  Si4  1  0.50000000  0.25000000  0.75000000  1
  Si  Si5  1  0.75000000  0.25000000  0.50000000  1
  O  O6  1  0.66264540  0.36835748  0.00000000  1
  O  O7  1  0.29428792  0.63164252  0.63164252  1
  O  O8  1  0.66264540  0.00000000  0.36835748  1
  O  O9  1  0.36835748  0.66264540  0.00000000  1
  O  O10  1  0.00000000  0.66264540  0.36835748  1
  O  O11  1  0.63164252  0.29428792  0.63164252  1
  O  O12  1  0.63164252  0.63164252  0.29428792  1
  O  O13  1  0.00000000  0.36835748  0.66264540  1
  O  O14  1  0.36835748  0.00000000  0.66264540  1
  O  O15  1  0.33735460  0.33735460  0.70571208  1
  O  O16  1  0.70571208  0.33735460  0.33735460  1
  O  O17  1  0.33735460  0.70571208  0.33735460  1
