# generated using pymatgen
data_Si2Pd9
_symmetry_space_group_name_H-M   'P 1'
_cell_length_a   7.46804512
_cell_length_b   9.08311357
_cell_length_c   9.47092013
_cell_angle_alpha   90.00000000
_cell_angle_beta   90.00000000
_cell_angle_gamma   90.00000000
_symmetry_Int_Tables_number   1
_chemical_formula_structural   Si2Pd9
_chemical_formula_sum   'Si8 Pd36'
_cell_volume   642.44189094
_cell_formula_units_Z   4
loop_
 _symmetry_equiv_pos_site_id
 _symmetry_equiv_pos_as_xyz
  1  'x, y, z'
loop_
 _atom_site_type_symbol
 _atom_site_label
 _atom_site_symmetry_multiplicity
 _atom_site_fract_x
 _atom_site_fract_y
 _atom_site_fract_z
 _atom_site_occupancy
  Si  Si0  1  0.75000000  0.63050414  0.78884603  1
  Si  Si1  1  0.25000000  0.36949586  0.21115397  1
  Si  Si2  1  0.75000000  0.13050414  0.71115397  1
  Si  Si3  1  0.25000000  0.86949586  0.28884603  1
  Si  Si4  1  0.75000000  0.77331402  0.17878345  1
  Si  Si5  1  0.25000000  0.22668598  0.82121655  1
  Si  Si6  1  0.75000000  0.27331402  0.32121655  1
  Si  Si7  1  0.25000000  0.72668598  0.67878345  1
  Pd  Pd8  1  0.93398706  0.89823168  0.68115797  1
  Pd  Pd9  1  0.43398706  0.10176832  0.31884203  1
  Pd  Pd10  1  0.56601294  0.39823168  0.81884203  1
  Pd  Pd11  1  0.06601294  0.60176832  0.18115797  1
  Pd  Pd12  1  0.06601294  0.10176832  0.31884203  1
  Pd  Pd13  1  0.56601294  0.89823168  0.68115797  1
  Pd  Pd14  1  0.43398706  0.60176832  0.18115797  1
  Pd  Pd15  1  0.93398706  0.39823168  0.81884203  1
  Pd  Pd16  1  0.94310194  0.61237623  0.59436840  1
  Pd  Pd17  1  0.44310194  0.38762377  0.40563160  1
  Pd  Pd18  1  0.55689806  0.11237623  0.90563160  1
  Pd  Pd19  1  0.05689806  0.88762377  0.09436840  1
  Pd  Pd20  1  0.05689806  0.38762377  0.40563160  1
  Pd  Pd21  1  0.55689806  0.61237623  0.59436840  1
  Pd  Pd22  1  0.44310194  0.88762377  0.09436840  1
  Pd  Pd23  1  0.94310194  0.11237623  0.90563160  1
  Pd  Pd24  1  0.94121001  0.81758559  0.37780899  1
  Pd  Pd25  1  0.44121001  0.18241441  0.62219101  1
  Pd  Pd26  1  0.55878999  0.31758559  0.12219101  1
  Pd  Pd27  1  0.05878999  0.68241441  0.87780899  1
  Pd  Pd28  1  0.05878999  0.18241441  0.62219101  1
  Pd  Pd29  1  0.55878999  0.81758559  0.37780899  1
  Pd  Pd30  1  0.44121001  0.68241441  0.87780899  1
  Pd  Pd31  1  0.94121001  0.31758559  0.12219101  1
  Pd  Pd32  1  0.75000000  0.85109138  0.93268705  1
  Pd  Pd33  1  0.25000000  0.14890962  0.06731295  1
  Pd  Pd34  1  0.75000000  0.35109138  0.56731295  1
  Pd  Pd35  1  0.25000000  0.64890862  0.43268705  1
  Pd  Pd36  1  0.75000000  0.55105158  0.33611690  1
  Pd  Pd37  1  0.25000000  0.44894842  0.66388310  1
  Pd  Pd38  1  0.75000000  0.05105158  0.16388310  1
  Pd  Pd39  1  0.25000000  0.94894842  0.83611690  1
  Pd  Pd40  1  0.75000000  0.55955507  0.03054509  1
  Pd  Pd41  1  0.25000000  0.44044493  0.96945491  1
  Pd  Pd42  1  0.75000000  0.05955507  0.46945491  1
  Pd  Pd43  1  0.25000000  0.94044493  0.53054509  1
