# generated using pymatgen
data_Si9Ni25
_symmetry_space_group_name_H-M   'P 1'
_cell_length_a   6.62217287
_cell_length_b   6.62217374
_cell_length_c   9.51982059
_cell_angle_alpha   90.00000000
_cell_angle_beta   90.00000000
_cell_angle_gamma   119.99999162
_symmetry_Int_Tables_number   1
_chemical_formula_structural   Si9Ni25
_chemical_formula_sum   'Si9 Ni25'
_cell_volume   361.54346514
_cell_formula_units_Z   1
loop_
 _symmetry_equiv_pos_site_id
 _symmetry_equiv_pos_as_xyz
  1  'x, y, z'
loop_
 _atom_site_type_symbol
 _atom_site_label
 _atom_site_symmetry_multiplicity
 _atom_site_fract_x
 _atom_site_fract_y
 _atom_site_fract_z
 _atom_site_occupancy
  Si  Si0  1  0.99243176  0.32903916  0.67744130  1
  Si  Si1  1  0.00756824  0.67096084  0.32255870  1
  Si  Si2  1  0.33660641  0.00756824  0.67744130  1
  Si  Si3  1  0.66339359  0.99243176  0.32255870  1
  Si  Si4  1  0.67096084  0.66339359  0.67744130  1
  Si  Si5  1  0.32903916  0.33660641  0.32255870  1
  Si  Si6  1  0.66666700  0.33333300  0.97541270  1
  Si  Si7  1  0.33333300  0.66666700  0.02458730  1
  Si  Si8  1  -0.00000000  0.00000000  -0.00000000  1
  Ni  Ni9  1  0.65694696  0.70194445  0.92522798  1
  Ni  Ni10  1  0.34305304  0.29805555  0.07477202  1
  Ni  Ni11  1  0.04499649  0.34305304  0.92522798  1
  Ni  Ni12  1  0.95500351  0.65694696  0.07477202  1
  Ni  Ni13  1  0.29805555  0.95500351  0.92522798  1
  Ni  Ni14  1  0.70194445  0.04499649  0.07477202  1
  Ni  Ni15  1  0.66666700  0.33333300  0.61010191  1
  Ni  Ni16  1  0.33333300  0.66666700  0.38989809  1
  Ni  Ni17  1  -0.00000000  0.00000000  0.75553090  1
  Ni  Ni18  1  -0.00000000  0.00000000  0.24446910  1
  Ni  Ni19  1  -0.00000000  0.00000000  0.50000000  1
  Ni  Ni20  1  0.66666700  0.33333300  0.23686406  1
  Ni  Ni21  1  0.33333300  0.66666700  0.76313594  1
  Ni  Ni22  1  0.67215589  0.07201827  0.81192645  1
  Ni  Ni23  1  0.32784411  0.92798173  0.18807355  1
  Ni  Ni24  1  0.39986238  0.32784411  0.81192645  1
  Ni  Ni25  1  0.60013762  0.67215589  0.18807355  1
  Ni  Ni26  1  0.92798173  0.60013762  0.81192645  1
  Ni  Ni27  1  0.07201827  0.39986238  0.18807355  1
  Ni  Ni28  1  0.62151011  0.93553414  0.56717927  1
  Ni  Ni29  1  0.37848989  0.06446586  0.43282073  1
  Ni  Ni30  1  0.31402403  0.37848989  0.56717927  1
  Ni  Ni31  1  0.68597597  0.62151011  0.43282073  1
  Ni  Ni32  1  0.06446586  0.68597597  0.56717927  1
  Ni  Ni33  1  0.93553414  0.31402403  0.43282073  1
