# generated using pymatgen
data_SmC2
_symmetry_space_group_name_H-M   'P 1'
_cell_length_a   3.77315123
_cell_length_b   3.77315170
_cell_length_c   4.15133498
_cell_angle_alpha   117.02957337
_cell_angle_beta   117.02957934
_cell_angle_gamma   89.99999256
_symmetry_Int_Tables_number   1
_chemical_formula_structural   SmC2
_chemical_formula_sum   'Sm1 C2'
_cell_volume   45.27898898
_cell_formula_units_Z   1
loop_
 _symmetry_equiv_pos_site_id
 _symmetry_equiv_pos_as_xyz
  1  'x, y, z'
loop_
 _atom_site_type_symbol
 _atom_site_label
 _atom_site_symmetry_multiplicity
 _atom_site_fract_x
 _atom_site_fract_y
 _atom_site_fract_z
 _atom_site_occupancy
  Sm  Sm0  1  0.00000000  0.00000000  0.00000000  1
  C  C1  1  0.60152662  0.60152662  0.20305225  1
  C  C2  1  0.39847338  0.39847338  0.79694775  1
