# generated using pymatgen
data_SmP5
_symmetry_space_group_name_H-M   'P 1'
_cell_length_a   5.01946605
_cell_length_b   5.41900504
_cell_length_c   9.50395610
_cell_angle_alpha   90.00000000
_cell_angle_beta   90.00000000
_cell_angle_gamma   102.20435762
_symmetry_Int_Tables_number   1
_chemical_formula_structural   SmP5
_chemical_formula_sum   'Sm2 P10'
_cell_volume   252.67004153
_cell_formula_units_Z   2
loop_
 _symmetry_equiv_pos_site_id
 _symmetry_equiv_pos_as_xyz
  1  'x, y, z'
loop_
 _atom_site_type_symbol
 _atom_site_label
 _atom_site_symmetry_multiplicity
 _atom_site_fract_x
 _atom_site_fract_y
 _atom_site_fract_z
 _atom_site_occupancy
  Sm  Sm0  1  0.00693114  0.34901480  0.25000000  1
  Sm  Sm1  1  0.99306886  0.65098520  0.75000000  1
  P  P2  1  0.28866216  0.89967955  0.25000000  1
  P  P3  1  0.71133784  0.10032045  0.75000000  1
  P  P4  1  0.61410262  0.95297843  0.40919361  1
  P  P5  1  0.38589738  0.04702157  0.90919361  1
  P  P6  1  0.38589738  0.04702157  0.59080639  1
  P  P7  1  0.61410262  0.95297843  0.09080639  1
  P  P8  1  0.70739077  0.59818292  0.46997516  1
  P  P9  1  0.29260923  0.40181708  0.96997516  1
  P  P10  1  0.29260923  0.40181708  0.53002484  1
  P  P11  1  0.70739077  0.59818292  0.03002484  1
