# generated using pymatgen
data_SmAl3
_symmetry_space_group_name_H-M   'P 1'
_cell_length_a   6.41124974
_cell_length_b   6.41124886
_cell_length_c   4.59265606
_cell_angle_alpha   90.00000000
_cell_angle_beta   90.00000000
_cell_angle_gamma   119.99999375
_symmetry_Int_Tables_number   1
_chemical_formula_structural   SmAl3
_chemical_formula_sum   'Sm2 Al6'
_cell_volume   163.48575259
_cell_formula_units_Z   2
loop_
 _symmetry_equiv_pos_site_id
 _symmetry_equiv_pos_as_xyz
  1  'x, y, z'
loop_
 _atom_site_type_symbol
 _atom_site_label
 _atom_site_symmetry_multiplicity
 _atom_site_fract_x
 _atom_site_fract_y
 _atom_site_fract_z
 _atom_site_occupancy
  Sm  Sm0  1  0.66666700  0.33333400  0.24999900  1
  Sm  Sm1  1  0.33333400  0.66666700  0.75000000  1
  Al  Al2  1  0.85831887  0.14168013  0.75000000  1
  Al  Al3  1  0.14168113  0.28336327  0.24999900  1
  Al  Al4  1  0.71663973  0.85832087  0.24999900  1
  Al  Al5  1  0.14168113  0.85832087  0.24999900  1
  Al  Al6  1  0.85831887  0.71663773  0.75000000  1
  Al  Al7  1  0.28336127  0.14168013  0.75000000  1
