# generated using pymatgen
data_Sm3Al11
_symmetry_space_group_name_H-M   'P 1'
_cell_length_a   8.40613051
_cell_length_b   8.40613051
_cell_length_c   8.40613051
_cell_angle_alpha   150.09075917
_cell_angle_beta   107.99163094
_cell_angle_gamma   79.88092885
_symmetry_Int_Tables_number   1
_chemical_formula_structural   Sm3Al11
_chemical_formula_sum   'Sm3 Al11'
_cell_volume   276.34615006
_cell_formula_units_Z   1
loop_
 _symmetry_equiv_pos_site_id
 _symmetry_equiv_pos_as_xyz
  1  'x, y, z'
loop_
 _atom_site_type_symbol
 _atom_site_label
 _atom_site_symmetry_multiplicity
 _atom_site_fract_x
 _atom_site_fract_y
 _atom_site_fract_z
 _atom_site_occupancy
  Sm  Sm0  1  -0.00000000  0.00000000  -0.00000000  1
  Sm  Sm1  1  0.31631557  0.31631557  -0.00000000  1
  Sm  Sm2  1  0.68368443  0.68368443  -0.00000000  1
  Al  Al3  1  0.50000000  0.00000000  0.50000000  1
  Al  Al4  1  0.28700880  0.50000000  0.78700880  1
  Al  Al5  1  0.71299120  0.50000000  0.21299120  1
  Al  Al6  1  0.96597388  0.33430337  0.63166851  1
  Al  Al7  1  0.03402612  0.66569663  0.36833149  1
  Al  Al8  1  0.70263486  0.33430337  0.36833149  1
  Al  Al9  1  0.29736514  0.66569663  0.63166851  1
  Al  Al10  1  0.86000096  0.13535954  0.72464142  1
  Al  Al11  1  0.13999904  0.86464046  0.27535858  1
  Al  Al12  1  0.41071811  0.13535954  0.27535858  1
  Al  Al13  1  0.58928189  0.86464046  0.72464142  1
