# generated using pymatgen
data_SmH3
_symmetry_space_group_name_H-M   'P 1'
_cell_length_a   6.53938313
_cell_length_b   6.53937954
_cell_length_c   6.80578403
_cell_angle_alpha   90.00003782
_cell_angle_beta   89.99988857
_cell_angle_gamma   119.99999854
_symmetry_Int_Tables_number   1
_chemical_formula_structural   SmH3
_chemical_formula_sum   'Sm6 H18'
_cell_volume   252.04734573
_cell_formula_units_Z   6
loop_
 _symmetry_equiv_pos_site_id
 _symmetry_equiv_pos_as_xyz
  1  'x, y, z'
loop_
 _atom_site_type_symbol
 _atom_site_label
 _atom_site_symmetry_multiplicity
 _atom_site_fract_x
 _atom_site_fract_y
 _atom_site_fract_z
 _atom_site_occupancy
  Sm  Sm0  1  0.33692622  0.33692622  0.75000020  1
  Sm  Sm1  1  0.66307426  -0.00000000  0.74999986  1
  Sm  Sm2  1  0.00000018  0.66307434  0.75000003  1
  Sm  Sm3  1  0.33692575  0.00000001  0.25000022  1
  Sm  Sm4  1  0.99999984  0.33692565  0.25000008  1
  Sm  Sm5  1  0.66307380  0.66307378  0.24999990  1
  H  H6  1  0.67917388  0.64956937  0.59162897  1
  H  H7  1  0.35043028  0.02960425  0.59162957  1
  H  H8  1  0.97039504  0.32082616  0.59162886  1
  H  H9  1  0.67917329  0.02960522  0.09162884  1
  H  H10  1  0.97039456  0.64956846  0.09162906  1
  H  H11  1  0.35043047  0.32082620  0.09162927  1
  H  H12  1  0.32082611  0.35043064  0.40837122  1
  H  H13  1  0.64956973  0.97039575  0.40837054  1
  H  H14  1  0.02960492  0.67917383  0.40837123  1
  H  H15  1  0.32082672  0.97039484  0.90837126  1
  H  H16  1  0.02960543  0.35043152  0.90837103  1
  H  H17  1  0.64956948  0.67917380  0.90837077  1
  H  H18  1  0.00000042  0.00000067  0.75000081  1
  H  H19  1  0.99999958  0.99999931  0.24999920  1
  H  H20  1  0.33333379  0.66666708  0.68464490  1
  H  H21  1  0.33333332  0.66666646  0.18464551  1
  H  H22  1  0.66666622  0.33333290  0.31535515  1
  H  H23  1  0.66666671  0.33333355  0.81535453  1
