# generated using pymatgen
data_Sm2C3
_symmetry_space_group_name_H-M   'P 1'
_cell_length_a   7.32897455
_cell_length_b   7.32897412
_cell_length_c   7.32897553
_cell_angle_alpha   109.47122748
_cell_angle_beta   109.47122623
_cell_angle_gamma   109.47121619
_symmetry_Int_Tables_number   1
_chemical_formula_structural   Sm2C3
_chemical_formula_sum   'Sm8 C12'
_cell_volume   303.04543025
_cell_formula_units_Z   4
loop_
 _symmetry_equiv_pos_site_id
 _symmetry_equiv_pos_as_xyz
  1  'x, y, z'
loop_
 _atom_site_type_symbol
 _atom_site_label
 _atom_site_symmetry_multiplicity
 _atom_site_fract_x
 _atom_site_fract_y
 _atom_site_fract_z
 _atom_site_occupancy
  Sm  Sm0  1  0.39804567  0.50000000  -0.00000000  1
  Sm  Sm1  1  -0.00000000  0.39804567  0.50000000  1
  Sm  Sm2  1  0.50000000  -0.00000000  0.39804567  1
  Sm  Sm3  1  0.89804567  0.50000000  -0.00000000  1
  Sm  Sm4  1  0.10195433  0.10195433  0.10195433  1
  Sm  Sm5  1  -0.00000000  0.89804567  0.50000000  1
  Sm  Sm6  1  0.60195433  0.60195433  0.60195433  1
  Sm  Sm7  1  0.50000000  -0.00000000  0.89804567  1
  C  C8  1  0.70336440  0.45336440  0.25000000  1
  C  C9  1  0.75000000  0.79663560  0.04663560  1
  C  C10  1  0.54663560  0.29663560  0.25000000  1
  C  C11  1  0.25000000  0.54663560  0.29663560  1
  C  C12  1  0.95336440  0.20336440  0.75000000  1
  C  C13  1  0.75000000  0.95336440  0.20336440  1
  C  C14  1  0.79663560  0.04663560  0.75000000  1
  C  C15  1  0.20336440  0.75000000  0.95336440  1
  C  C16  1  0.04663560  0.75000000  0.79663560  1
  C  C17  1  0.45336440  0.25000000  0.70336440  1
  C  C18  1  0.25000000  0.70336440  0.45336440  1
  C  C19  1  0.29663560  0.25000000  0.54663560  1
