# generated using pymatgen
data_Sr2N
_symmetry_space_group_name_H-M   'P 1'
_cell_length_a   7.34141349
_cell_length_b   7.34141349
_cell_length_c   7.34141410
_cell_angle_alpha   30.32864954
_cell_angle_beta   30.32864557
_cell_angle_gamma   30.32864579
_symmetry_Int_Tables_number   1
_chemical_formula_structural   Sr2N
_chemical_formula_sum   'Sr2 N1'
_cell_volume   89.41106168
_cell_formula_units_Z   1
loop_
 _symmetry_equiv_pos_site_id
 _symmetry_equiv_pos_as_xyz
  1  'x, y, z'
loop_
 _atom_site_type_symbol
 _atom_site_label
 _atom_site_symmetry_multiplicity
 _atom_site_fract_x
 _atom_site_fract_y
 _atom_site_fract_z
 _atom_site_occupancy
  Sr  Sr0  1  0.26830294  0.26830294  0.26830294  1
  Sr  Sr1  1  0.73169706  0.73169706  0.73169706  1
  N  N2  1  0.00000000  -0.00000000  0.00000000  1
