# generated using pymatgen
data_Sr3P2
_symmetry_space_group_name_H-M   'P 1'
_cell_length_a   24.26459177
_cell_length_b   9.35521677
_cell_length_c   9.35520767
_cell_angle_alpha   90.00146982
_cell_angle_beta   54.66991422
_cell_angle_gamma   54.66974640
_symmetry_Int_Tables_number   1
_chemical_formula_structural   Sr3P2
_chemical_formula_sum   'Sr24 P16'
_cell_volume   1222.06120985
_cell_formula_units_Z   8
loop_
 _symmetry_equiv_pos_site_id
 _symmetry_equiv_pos_as_xyz
  1  'x, y, z'
loop_
 _atom_site_type_symbol
 _atom_site_label
 _atom_site_symmetry_multiplicity
 _atom_site_fract_x
 _atom_site_fract_y
 _atom_site_fract_z
 _atom_site_occupancy
  Sr  Sr0  1  0.13702763  0.47649561  0.98664582  1
  Sr  Sr1  1  0.04622737  0.37109257  0.49073710  1
  Sr  Sr2  1  0.28714157  0.12891325  0.12932583  1
  Sr  Sr3  1  0.04621319  0.99030472  0.37063605  1
  Sr  Sr4  1  0.28710891  0.50974191  0.00924543  1
  Sr  Sr5  1  0.13705548  0.61236082  0.60233239  1
  Sr  Sr6  1  0.19629738  0.88758833  0.51336683  1
  Sr  Sr7  1  0.45485663  0.48615458  0.98059116  1
  Sr  Sr8  1  0.37851098  0.34510800  0.51377659  1
  Sr  Sr9  1  0.19627648  0.02353485  0.89768864  1
  Sr  Sr10  1  0.63704900  0.10234653  0.11237097  1
  Sr  Sr11  1  0.37848656  0.01935041  0.35073564  1
  Sr  Sr12  1  0.63701741  0.48665532  0.97651333  1
  Sr  Sr13  1  0.45485426  0.64927563  0.65481353  1
  Sr  Sr14  1  0.54623371  0.87060484  0.49028173  1
  Sr  Sr15  1  0.78709016  0.50927445  0.00976563  1
  Sr  Sr16  1  0.69628536  0.39767058  0.52352316  1
  Sr  Sr17  1  0.54624474  0.99071086  0.87105989  1
  Sr  Sr18  1  0.95483003  0.15484906  0.14931113  1
  Sr  Sr19  1  0.69630768  0.01335628  0.38757411  1
  Sr  Sr20  1  0.95483490  0.48062232  0.98618867  1
  Sr  Sr21  1  0.78712353  0.62935193  0.62894604  1
  Sr  Sr22  1  0.87846434  0.85076606  0.51938281  1
  Sr  Sr23  1  0.87848772  0.01381284  0.84514548  1
  P  P24  1  0.09088202  0.61370330  0.36370786  1
  P  P25  1  0.16668578  0.24994740  0.62900977  1
  P  P26  1  0.24245242  0.88634162  0.13629079  1
  P  P27  1  0.34179863  0.38518078  0.24861113  1
  P  P28  1  0.34181844  0.08933003  0.72588293  1
  P  P29  1  0.16664216  0.75000664  0.87098692  1
  P  P30  1  0.49153023  0.27412266  0.61481657  1
  P  P31  1  0.66664566  0.37099783  0.25000674  1
  P  P32  1  0.59089632  0.86368459  0.11367984  1
  P  P33  1  0.49154669  0.75131889  0.91067696  1
  P  P34  1  0.66668554  0.12899502  0.74994878  1
  P  P35  1  0.74244133  0.63630786  0.38635695  1
  P  P36  1  0.84179218  0.22591993  0.58935637  1
  P  P37  1  0.99153311  0.41069279  0.25134017  1
  P  P38  1  0.99150535  0.11487293  0.77416781  1
  P  P39  1  0.84178511  0.74863299  0.88520743  1
