# generated using pymatgen
data_SrP3
_symmetry_space_group_name_H-M   'P 1'
_cell_length_a   6.86256539
_cell_length_b   6.86256652
_cell_length_c   8.61654570
_cell_angle_alpha   78.37509151
_cell_angle_beta   78.37508334
_cell_angle_gamma   65.61986073
_symmetry_Int_Tables_number   1
_chemical_formula_structural   SrP3
_chemical_formula_sum   'Sr4 P12'
_cell_volume   358.82877941
_cell_formula_units_Z   4
loop_
 _symmetry_equiv_pos_site_id
 _symmetry_equiv_pos_as_xyz
  1  'x, y, z'
loop_
 _atom_site_type_symbol
 _atom_site_label
 _atom_site_symmetry_multiplicity
 _atom_site_fract_x
 _atom_site_fract_y
 _atom_site_fract_z
 _atom_site_occupancy
  Sr  Sr0  1  0.04270050  0.04270050  0.25955320  1
  Sr  Sr1  1  0.70674046  0.70674046  0.22313530  1
  Sr  Sr2  1  0.29325954  0.29325954  0.77686470  1
  Sr  Sr3  1  0.95729950  0.95729950  0.74044680  1
  P  P4  1  0.36086736  0.83358615  0.97624696  1
  P  P5  1  0.09638167  0.60060742  0.48667518  1
  P  P6  1  0.32797692  0.32797692  0.16050352  1
  P  P7  1  0.39939258  0.90361833  0.51332482  1
  P  P8  1  0.41475770  0.41475770  0.36621934  1
  P  P9  1  0.67202308  0.67202308  0.83949648  1
  P  P10  1  0.60060742  0.09638167  0.48667518  1
  P  P11  1  0.58524230  0.58524230  0.63378066  1
  P  P12  1  0.63913264  0.16641385  0.02375304  1
  P  P13  1  0.90361833  0.39939258  0.51332482  1
  P  P14  1  0.83358615  0.36086736  0.97624696  1
  P  P15  1  0.16641385  0.63913264  0.02375304  1
