# generated using pymatgen
data_Sr2Si
_symmetry_space_group_name_H-M   'P 1'
_cell_length_a   5.15255170
_cell_length_b   8.10749225
_cell_length_c   9.59401736
_cell_angle_alpha   90.00000000
_cell_angle_beta   90.00000000
_cell_angle_gamma   90.00000000
_symmetry_Int_Tables_number   1
_chemical_formula_structural   Sr2Si
_chemical_formula_sum   'Sr8 Si4'
_cell_volume   400.78310013
_cell_formula_units_Z   4
loop_
 _symmetry_equiv_pos_site_id
 _symmetry_equiv_pos_as_xyz
  1  'x, y, z'
loop_
 _atom_site_type_symbol
 _atom_site_label
 _atom_site_symmetry_multiplicity
 _atom_site_fract_x
 _atom_site_fract_y
 _atom_site_fract_z
 _atom_site_occupancy
  Sr  Sr0  1  0.75000000  0.98185565  0.17448468  1
  Sr  Sr1  1  0.25000000  0.01814435  0.82551532  1
  Sr  Sr2  1  0.75000000  0.48185565  0.32551532  1
  Sr  Sr3  1  0.25000000  0.51814435  0.67448468  1
  Sr  Sr4  1  0.25000000  0.65143084  0.07832305  1
  Sr  Sr5  1  0.75000000  0.34856916  0.92167695  1
  Sr  Sr6  1  0.25000000  0.15143084  0.42167695  1
  Sr  Sr7  1  0.75000000  0.84856916  0.57832305  1
  Si  Si8  1  0.25000000  0.25276078  0.10162509  1
  Si  Si9  1  0.75000000  0.74723922  0.89837591  1
  Si  Si10  1  0.25000000  0.75276078  0.39837491  1
  Si  Si11  1  0.75000000  0.24723922  0.60162409  1
