# generated using pymatgen
data_Ta2S
_symmetry_space_group_name_H-M   'P 1'
_cell_length_a   5.62045017
_cell_length_b   7.39180448
_cell_length_c   15.26698325
_cell_angle_alpha   90.00000000
_cell_angle_beta   90.00000000
_cell_angle_gamma   90.00000000
_symmetry_Int_Tables_number   1
_chemical_formula_structural   Ta2S
_chemical_formula_sum   'Ta24 S12'
_cell_volume   634.27092207
_cell_formula_units_Z   12
loop_
 _symmetry_equiv_pos_site_id
 _symmetry_equiv_pos_as_xyz
  1  'x, y, z'
loop_
 _atom_site_type_symbol
 _atom_site_label
 _atom_site_symmetry_multiplicity
 _atom_site_fract_x
 _atom_site_fract_y
 _atom_site_fract_z
 _atom_site_occupancy
  Ta  Ta0  1  0.13303420  0.00921068  0.25000000  1
  Ta  Ta1  1  0.10425939  0.90488458  0.59086118  1
  Ta  Ta2  1  0.89622878  0.71780745  0.15466744  1
  Ta  Ta3  1  0.60425939  0.09511542  0.90913882  1
  Ta  Ta4  1  0.60377122  0.71780745  0.84533256  1
  Ta  Ta5  1  0.86696580  0.99078932  0.75000000  1
  Ta  Ta6  1  0.10377122  0.28219255  0.65466744  1
  Ta  Ta7  1  0.89574061  0.09511542  0.40913882  1
  Ta  Ta8  1  0.89574061  0.09511542  0.09086118  1
  Ta  Ta9  1  0.62805967  0.34951023  0.75000000  1
  Ta  Ta10  1  0.39622878  0.28219255  0.34533256  1
  Ta  Ta11  1  0.87194033  0.34951023  0.25000000  1
  Ta  Ta12  1  0.63303420  0.99078932  0.25000000  1
  Ta  Ta13  1  0.39574061  0.90488458  0.09086118  1
  Ta  Ta14  1  0.39574061  0.90488458  0.40913882  1
  Ta  Ta15  1  0.36696580  0.00921068  0.75000000  1
  Ta  Ta16  1  0.39622878  0.28219255  0.15466744  1
  Ta  Ta17  1  0.10377122  0.28219255  0.84533256  1
  Ta  Ta18  1  0.89622878  0.71780745  0.34533256  1
  Ta  Ta19  1  0.60377122  0.71780745  0.65466744  1
  Ta  Ta20  1  0.60425939  0.09511542  0.59086118  1
  Ta  Ta21  1  0.12805967  0.65048977  0.75000000  1
  Ta  Ta22  1  0.10425939  0.90488458  0.90913882  1
  Ta  Ta23  1  0.37194033  0.65048977  0.25000000  1
  S  S24  1  0.26704476  0.58766432  0.09832243  1
  S  S25  1  0.73295524  0.41233568  0.90167757  1
  S  S26  1  0.25000000  0.17848865  0.50000000  1
  S  S27  1  0.75000000  0.82151135  -0.00000000  1
  S  S28  1  0.26704476  0.58766432  0.40167757  1
  S  S29  1  0.25000000  0.17848865  -0.00000000  1
  S  S30  1  0.76704476  0.41233568  0.09832243  1
  S  S31  1  0.23295524  0.58766432  0.59832243  1
  S  S32  1  0.73295524  0.41233568  0.59832243  1
  S  S33  1  0.23295524  0.58766432  0.90167757  1
  S  S34  1  0.75000000  0.82151135  0.50000000  1
  S  S35  1  0.76704476  0.41233568  0.40167757  1
