# generated using pymatgen
data_TbC2
_symmetry_space_group_name_H-M   'P 1'
_cell_length_a   3.68221478
_cell_length_b   3.68221443
_cell_length_c   4.05720050
_cell_angle_alpha   116.98697297
_cell_angle_beta   116.98696277
_cell_angle_gamma   89.99999565
_symmetry_Int_Tables_number   1
_chemical_formula_structural   TbC2
_chemical_formula_sum   'Tb1 C2'
_cell_volume   42.18809480
_cell_formula_units_Z   1
loop_
 _symmetry_equiv_pos_site_id
 _symmetry_equiv_pos_as_xyz
  1  'x, y, z'
loop_
 _atom_site_type_symbol
 _atom_site_label
 _atom_site_symmetry_multiplicity
 _atom_site_fract_x
 _atom_site_fract_y
 _atom_site_fract_z
 _atom_site_occupancy
  Tb  Tb0  1  -0.00000000  0.00000000  0.00000000  1
  C  C1  1  0.60402884  0.60402884  0.20805967  1
  C  C2  1  0.39597116  0.39597116  0.79194033  1
