# generated using pymatgen
data_TbP
_symmetry_space_group_name_H-M   'P 1'
_cell_length_a   4.02804372
_cell_length_b   4.02804427
_cell_length_c   4.02804325
_cell_angle_alpha   59.99999134
_cell_angle_beta   59.99998672
_cell_angle_gamma   59.99998582
_symmetry_Int_Tables_number   1
_chemical_formula_structural   TbP
_chemical_formula_sum   'Tb1 P1'
_cell_volume   46.21334658
_cell_formula_units_Z   1
loop_
 _symmetry_equiv_pos_site_id
 _symmetry_equiv_pos_as_xyz
  1  'x, y, z'
loop_
 _atom_site_type_symbol
 _atom_site_label
 _atom_site_symmetry_multiplicity
 _atom_site_fract_x
 _atom_site_fract_y
 _atom_site_fract_z
 _atom_site_occupancy
  Tb  Tb0  1  0.50000000  0.50000000  0.50000000  1
  P  P1  1  -0.00000000  0.00000000  0.00000000  1
