# generated using pymatgen
data_Tb2Si3
_symmetry_space_group_name_H-M   'P 1'
_cell_length_a   3.93367899
_cell_length_b   4.16992739
_cell_length_c   12.41823856
_cell_angle_alpha   99.67636984
_cell_angle_beta   90.00000000
_cell_angle_gamma   90.00000000
_symmetry_Int_Tables_number   1
_chemical_formula_structural   Tb2Si3
_chemical_formula_sum   'Tb4 Si6'
_cell_volume   200.80025993
_cell_formula_units_Z   2
loop_
 _symmetry_equiv_pos_site_id
 _symmetry_equiv_pos_as_xyz
  1  'x, y, z'
loop_
 _atom_site_type_symbol
 _atom_site_label
 _atom_site_symmetry_multiplicity
 _atom_site_fract_x
 _atom_site_fract_y
 _atom_site_fract_z
 _atom_site_occupancy
  Tb  Tb0  1  0.75000000  0.43052342  0.86190098  1
  Tb  Tb1  1  0.25000000  0.56944713  0.13804709  1
  Tb  Tb2  1  0.75000000  0.70241874  0.40459272  1
  Tb  Tb3  1  0.25000000  0.29759683  0.59543281  1
  Si  Si4  1  0.75000000  0.02432082  0.04892158  1
  Si  Si5  1  0.25000000  0.97567982  0.95107438  1
  Si  Si6  1  0.75000000  0.11886918  0.23767564  1
  Si  Si7  1  0.25000000  0.88112888  0.76232638  1
  Si  Si8  1  0.75000000  0.82360904  0.64673946  1
  Si  Si9  1  0.25000000  0.17640616  0.35328896  1
