# generated using pymatgen
data_TbSi
_symmetry_space_group_name_H-M   'P 1'
_cell_length_a   3.83896042
_cell_length_b   5.72157454
_cell_length_c   7.94671079
_cell_angle_alpha   90.00000000
_cell_angle_beta   90.00000000
_cell_angle_gamma   90.00000000
_symmetry_Int_Tables_number   1
_chemical_formula_structural   TbSi
_chemical_formula_sum   'Tb4 Si4'
_cell_volume   174.54869352
_cell_formula_units_Z   4
loop_
 _symmetry_equiv_pos_site_id
 _symmetry_equiv_pos_as_xyz
  1  'x, y, z'
loop_
 _atom_site_type_symbol
 _atom_site_label
 _atom_site_symmetry_multiplicity
 _atom_site_fract_x
 _atom_site_fract_y
 _atom_site_fract_z
 _atom_site_occupancy
  Tb  Tb0  1  0.25000000  0.38522462  0.67933243  1
  Tb  Tb1  1  0.75000000  0.61477538  0.32066757  1
  Tb  Tb2  1  0.75000000  0.88522462  0.82066757  1
  Tb  Tb3  1  0.25000000  0.11477538  0.17933243  1
  Si  Si4  1  0.25000000  0.87273968  0.53726585  1
  Si  Si5  1  0.75000000  0.12726032  0.46273415  1
  Si  Si6  1  0.75000000  0.37273968  0.96273415  1
  Si  Si7  1  0.25000000  0.62726032  0.03726585  1
