# generated using pymatgen
data_Tc3B
_symmetry_space_group_name_H-M   'P 1'
_cell_length_a   2.91003286
_cell_length_b   4.82074202
_cell_length_c   7.19864870
_cell_angle_alpha   90.00000000
_cell_angle_beta   90.00000000
_cell_angle_gamma   107.56718703
_symmetry_Int_Tables_number   1
_chemical_formula_structural   Tc3B
_chemical_formula_sum   'Tc6 B2'
_cell_volume   96.27673766
_cell_formula_units_Z   2
loop_
 _symmetry_equiv_pos_site_id
 _symmetry_equiv_pos_as_xyz
  1  'x, y, z'
loop_
 _atom_site_type_symbol
 _atom_site_label
 _atom_site_symmetry_multiplicity
 _atom_site_fract_x
 _atom_site_fract_y
 _atom_site_fract_z
 _atom_site_occupancy
  Tc  Tc0  1  0.13511058  0.27022017  0.43932582  1
  Tc  Tc1  1  0.86488942  0.72977983  0.56067418  1
  Tc  Tc2  1  0.13511058  0.27022017  0.06067418  1
  Tc  Tc3  1  0.86488942  0.72977983  0.93932582  1
  Tc  Tc4  1  0.42489856  0.84979712  0.25000000  1
  Tc  Tc5  1  0.57510144  0.15020288  0.75000000  1
  B  B6  1  0.74333775  0.48667449  0.25000000  1
  B  B7  1  0.25666225  0.51332551  0.75000000  1
