# generated using pymatgen
data_Th2P11
_symmetry_space_group_name_H-M   'P 1'
_cell_length_a   10.16134303
_cell_length_b   17.42281566
_cell_length_c   19.14272365
_cell_angle_alpha   116.50830948
_cell_angle_beta   90.00000000
_cell_angle_gamma   90.00000000
_symmetry_Int_Tables_number   1
_chemical_formula_structural   Th2P11
_chemical_formula_sum   'Th24 P132'
_cell_volume   3032.72449313
_cell_formula_units_Z   12
loop_
 _symmetry_equiv_pos_site_id
 _symmetry_equiv_pos_as_xyz
  1  'x, y, z'
loop_
 _atom_site_type_symbol
 _atom_site_label
 _atom_site_symmetry_multiplicity
 _atom_site_fract_x
 _atom_site_fract_y
 _atom_site_fract_z
 _atom_site_occupancy
  P  P0  1  0.10766625  0.89355814  0.96939854  1
  P  P1  1  0.60766625  0.60644186  0.53060146  1
  P  P2  1  0.89233375  0.10644186  0.03060146  1
  P  P3  1  0.39233375  0.39355814  0.46939854  1
  P  P4  1  0.11820033  0.57394888  0.97765964  1
  P  P5  1  0.61820033  0.92605112  0.52234036  1
  P  P6  1  0.88179967  0.42605112  0.02234036  1
  P  P7  1  0.38179967  0.07394888  0.47765964  1
  P  P8  1  0.11579910  0.24707387  0.98016577  1
  P  P9  1  0.61579910  0.25292613  0.51983423  1
  P  P10  1  0.88420090  0.75292613  0.01983423  1
  P  P11  1  0.38420090  0.74707387  0.48016577  1
  P  P12  1  0.09803346  0.99129384  0.09214635  1
  P  P13  1  0.59803346  0.50870616  0.40785365  1
  P  P14  1  0.90196654  0.00870616  0.90785365  1
  P  P15  1  0.40196654  0.49129384  0.59214635  1
  P  P16  1  0.10407693  0.65088915  0.10405280  1
  P  P17  1  0.60407693  0.84911085  0.39594720  1
  P  P18  1  0.89592307  0.34911085  0.89594720  1
  P  P19  1  0.39592307  0.15088915  0.60405280  1
  P  P20  1  0.10249317  0.32322723  0.10690242  1
  P  P21  1  0.60249317  0.17677277  0.39309758  1
  P  P22  1  0.89750683  0.67677277  0.89309758  1
  P  P23  1  0.39750683  0.82322723  0.60690242  1
  P  P24  1  0.39055810  0.46495403  0.39628532  1
  P  P25  1  0.89055810  0.03504597  0.10371468  1
  P  P26  1  0.60944190  0.53504597  0.60371468  1
  P  P27  1  0.10944190  0.96495403  0.89628532  1
  P  P28  1  0.39282783  0.83454566  0.36608677  1
  P  P29  1  0.89282783  0.66545434  0.13391323  1
  P  P30  1  0.60717217  0.16545434  0.63391323  1
  P  P31  1  0.10717217  0.33454566  0.86608677  1
  P  P32  1  0.39203552  0.16272525  0.36110806  1
  P  P33  1  0.89203552  0.33727475  0.13889194  1
  P  P34  1  0.60796448  0.83727475  0.63889194  1
  P  P35  1  0.10796448  0.66272525  0.86110806  1
  P  P36  1  0.59982965  0.13210237  0.13132784  1
  P  P37  1  0.09982965  0.36789763  0.36867216  1
  P  P38  1  0.40017035  0.86789763  0.86867216  1
  P  P39  1  0.90017035  0.63210237  0.63132784  1
  P  P40  1  0.59541068  0.46762425  0.13397007  1
  P  P41  1  0.09541068  0.03237575  0.36602993  1
  P  P42  1  0.40458932  0.53237575  0.86602993  1
  P  P43  1  0.90458932  0.96762425  0.63397007  1
  P  P44  1  0.59512259  0.79770881  0.13210299  1
  P  P45  1  0.09512259  0.70229119  0.36789701  1
  P  P46  1  0.40487741  0.20229119  0.86789701  1
  P  P47  1  0.90487741  0.29770881  0.63210299  1
  P  P48  1  0.61077678  0.86334325  0.83775702  1
  P  P49  1  0.11077678  0.63665675  0.66224298  1
  P  P50  1  0.38922322  0.13665675  0.16224298  1
  P  P51  1  0.88922322  0.36334325  0.33775702  1
  P  P52  1  0.61823521  0.52184846  0.83671186  1
  P  P53  1  0.11823521  0.97815154  0.66328814  1
  P  P54  1  0.38176479  0.47815154  0.16328814  1
  P  P55  1  0.88176479  0.02184846  0.33671186  1
  P  P56  1  0.61720127  0.19212233  0.83483344  1
  P  P57  1  0.11720127  0.30787767  0.66516656  1
  P  P58  1  0.38279873  0.80787767  0.16516656  1
  P  P59  1  0.88279873  0.69212233  0.33483344  1
  P  P60  1  0.60136759  0.76596828  0.71216008  1
  P  P61  1  0.10136759  0.73403172  0.78783992  1
  P  P62  1  0.39863241  0.23403172  0.28783992  1
  P  P63  1  0.89863241  0.26596828  0.21216008  1
  P  P64  1  0.61652963  0.43773153  0.70836878  1
  P  P65  1  0.11652963  0.06226847  0.79163122  1
  P  P66  1  0.38347037  0.56226847  0.29163122  1
  P  P67  1  0.88347037  0.93773153  0.20836878  1
  P  P68  1  0.60481101  0.09641433  0.70814792  1
  P  P69  1  0.10481101  0.40358567  0.79185208  1
  P  P70  1  0.39518899  0.90358567  0.29185208  1
  P  P71  1  0.89518899  0.59641433  0.20814792  1
  P  P72  1  0.39561229  0.72276192  0.70037062  1
  P  P73  1  0.89561229  0.77723808  0.79962938  1
  P  P74  1  0.60438771  0.27723808  0.29962938  1
  P  P75  1  0.10438771  0.22276192  0.20037062  1
  P  P76  1  0.41713526  0.37951284  0.69447846  1
  P  P77  1  0.91713526  0.12048716  0.80552154  1
  P  P78  1  0.58286474  0.62048716  0.30552154  1
  P  P79  1  0.08286474  0.87951284  0.19447846  1
  P  P80  1  0.40163538  0.05018374  0.69946113  1
  P  P81  1  0.90163538  0.44981626  0.80053887  1
  P  P82  1  0.59836462  0.94981626  0.30053887  1
  P  P83  1  0.09836462  0.55018374  0.19946113  1
  P  P84  1  0.40654959  0.65480207  0.77458973  1
  P  P85  1  0.90654959  0.84519793  0.72541027  1
  P  P86  1  0.59345041  0.34519793  0.22541027  1
  P  P87  1  0.09345041  0.15480207  0.27458973  1
  P  P88  1  0.40291235  0.31851979  0.77428441  1
  P  P89  1  0.90291235  0.18148021  0.72571559  1
  P  P90  1  0.59708765  0.68148021  0.22571559  1
  P  P91  1  0.09708765  0.81851979  0.27428441  1
  P  P92  1  0.42135190  0.98910657  0.77876881  1
  P  P93  1  0.92135190  0.51089343  0.72123119  1
  P  P94  1  0.57864810  0.01089343  0.22123119  1
  P  P95  1  0.07864810  0.48910657  0.27876881  1
  P  P96  1  0.39368713  0.75655665  0.89968116  1
  P  P97  1  0.89368713  0.74344335  0.60031884  1
  P  P98  1  0.60631287  0.24344335  0.10031884  1
  P  P99  1  0.10631287  0.25655665  0.39968116  1
  P  P100  1  0.39712964  0.42342161  0.89869131  1
  P  P101  1  0.89712964  0.07657839  0.60130869  1
  P  P102  1  0.60287036  0.57657839  0.10130869  1
  P  P103  1  0.10287036  0.92342161  0.39869131  1
  P  P104  1  0.39848901  0.09442181  0.90131495  1
  P  P105  1  0.89848901  0.40557819  0.59868505  1
  P  P106  1  0.60151099  0.90557819  0.09868505  1
  P  P107  1  0.10151099  0.59442181  0.40131495  1
  P  P108  1  0.60397879  0.75135991  0.92942412  1
  P  P109  1  0.10397879  0.74864009  0.57057588  1
  P  P110  1  0.39602121  0.24864009  0.07057588  1
  P  P111  1  0.89602121  0.25135991  0.42942412  1
  P  P112  1  0.60721623  0.42791926  0.93520274  1
  P  P113  1  0.10721623  0.07208074  0.56479726  1
  P  P114  1  0.39278377  0.57208074  0.06479726  1
  P  P115  1  0.89278377  0.92791926  0.43520274  1
  P  P116  1  0.60917249  0.09655824  0.93657046  1
  P  P117  1  0.10917249  0.40344176  0.56342954  1
  P  P118  1  0.39082751  0.90344176  0.06342954  1
  P  P119  1  0.89082751  0.59655824  0.43657046  1
  P  P120  1  0.39627207  0.97502272  0.99249562  1
  P  P121  1  0.89627207  0.52497728  0.50750438  1
  P  P122  1  0.60372793  0.02497728  0.00750438  1
  P  P123  1  0.10372793  0.47502272  0.49249562  1
  P  P124  1  0.39716847  0.63904629  0.99039444  1
  P  P125  1  0.89716847  0.86095371  0.50960556  1
  P  P126  1  0.60283153  0.36095371  0.00960556  1
  P  P127  1  0.10283153  0.13904629  0.49039444  1
  P  P128  1  0.39754538  0.31074225  0.99252352  1
  P  P129  1  0.89754538  0.18925775  0.50747648  1
  P  P130  1  0.60245462  0.68925775  0.00747648  1
  P  P131  1  0.10245462  0.81074225  0.49252352  1
  Th  Th132  1  0.68840123  0.37726547  0.46323184  1
  Th  Th133  1  0.18840123  0.12273453  0.03676816  1
  Th  Th134  1  0.31159877  0.62273453  0.53676816  1
  Th  Th135  1  0.81159877  0.87726547  0.96323184  1
  Th  Th136  1  0.67699784  0.05721411  0.46836501  1
  Th  Th137  1  0.17699784  0.44278589  0.03163499  1
  Th  Th138  1  0.32300216  0.94278589  0.53163499  1
  Th  Th139  1  0.82300216  0.55721411  0.96836501  1
  Th  Th140  1  0.67642483  0.73353119  0.47288758  1
  Th  Th141  1  0.17642483  0.76646881  0.02711242  1
  Th  Th142  1  0.32357517  0.26646881  0.52711242  1
  Th  Th143  1  0.82357517  0.23353119  0.97288758  1
  Th  Th144  1  0.79903687  0.13724682  0.26506192  1
  Th  Th145  1  0.29903687  0.36275318  0.23493808  1
  Th  Th146  1  0.20096313  0.86275318  0.73493808  1
  Th  Th147  1  0.70096313  0.63724682  0.76506192  1
  Th  Th148  1  0.80269558  0.82105724  0.27336662  1
  Th  Th149  1  0.30269558  0.67894276  0.22663338  1
  Th  Th150  1  0.19730442  0.17894276  0.72663338  1
  Th  Th151  1  0.69730442  0.32105724  0.77336662  1
  Th  Th152  1  0.78564481  0.48868571  0.27808580  1
  Th  Th153  1  0.28564481  0.01131429  0.22191420  1
  Th  Th154  1  0.21435519  0.51131429  0.72191420  1
  Th  Th155  1  0.71435519  0.98868571  0.77808580  1
