# generated using pymatgen
data_Th7S12
_symmetry_space_group_name_H-M   'P 1'
_cell_length_a   4.00955719
_cell_length_b   11.15120556
_cell_length_c   11.15120201
_cell_angle_alpha   120.00002451
_cell_angle_beta   90.00000000
_cell_angle_gamma   90.00000000
_symmetry_Int_Tables_number   1
_chemical_formula_structural   Th7S12
_chemical_formula_sum   'Th7 S12'
_cell_volume   431.78787380
_cell_formula_units_Z   1
loop_
 _symmetry_equiv_pos_site_id
 _symmetry_equiv_pos_as_xyz
  1  'x, y, z'
loop_
 _atom_site_type_symbol
 _atom_site_label
 _atom_site_symmetry_multiplicity
 _atom_site_fract_x
 _atom_site_fract_y
 _atom_site_fract_z
 _atom_site_occupancy
  Th  Th0  1  0.75000000  0.00000026  0.00000044  1
  Th  Th1  1  0.75000000  0.43322676  0.28212149  1
  Th  Th2  1  0.75000000  0.71787825  0.15110526  1
  Th  Th3  1  0.75000000  0.84889487  0.56677306  1
  Th  Th4  1  0.25000000  0.55949125  0.71225988  1
  Th  Th5  1  0.25000000  0.28774022  0.84723083  1
  Th  Th6  1  0.25000000  0.15276943  0.44050911  1
  S  S7  1  0.75000000  0.13908987  0.62723515  1
  S  S8  1  0.75000000  0.37276479  0.51185417  1
  S  S9  1  0.75000000  0.48814585  0.86091032  1
  S  S10  1  0.25000000  0.85995374  0.38322822  1
  S  S11  1  0.25000000  0.61677201  0.47672546  1
  S  S12  1  0.25000000  0.52327448  0.14004620  1
  S  S13  1  0.75000000  0.24851932  0.99496828  1
  S  S14  1  0.75000000  0.00503139  0.25355112  1
  S  S15  1  0.75000000  0.74644932  0.75148043  1
  S  S16  1  0.25000000  0.79067760  0.00531398  1
  S  S17  1  0.25000000  0.99468634  0.78536346  1
  S  S18  1  0.25000000  0.21463626  0.20932214  1
