# generated using pymatgen
data_Th4H15
_symmetry_space_group_name_H-M   'P 1'
_cell_length_a   7.90367090
_cell_length_b   7.90367272
_cell_length_c   7.90367294
_cell_angle_alpha   109.47121859
_cell_angle_beta   109.47121535
_cell_angle_gamma   109.47121862
_symmetry_Int_Tables_number   1
_chemical_formula_structural   Th4H15
_chemical_formula_sum   'Th8 H30'
_cell_volume   380.07116042
_cell_formula_units_Z   2
loop_
 _symmetry_equiv_pos_site_id
 _symmetry_equiv_pos_as_xyz
  1  'x, y, z'
loop_
 _atom_site_type_symbol
 _atom_site_label
 _atom_site_symmetry_multiplicity
 _atom_site_fract_x
 _atom_site_fract_y
 _atom_site_fract_z
 _atom_site_occupancy
  Th  Th0  1  0.91551995  0.91551995  0.91551895  1
  Th  Th1  1  0.08448005  0.50000000  -0.00000000  1
  Th  Th2  1  0.50000000  0.00000000  0.08448005  1
  Th  Th3  1  0.00000000  0.08448005  0.50000000  1
  Th  Th4  1  0.50000000  0.00000000  0.58448005  1
  Th  Th5  1  0.00000000  0.58448105  0.50000000  1
  Th  Th6  1  0.58448105  0.50000000  -0.00000000  1
  Th  Th7  1  0.41551895  0.41551995  0.41551995  1
  H  H8  1  0.37439113  0.65381223  0.96916292  1
  H  H9  1  0.84618777  0.22057690  0.31534970  1
  H  H10  1  0.53083708  0.18465030  0.40522621  1
  H  H11  1  0.12560887  0.09477379  0.27942210  1
  H  H12  1  0.09477379  0.27942210  0.12560887  1
  H  H13  1  0.27942210  0.12560887  0.09477379  1
  H  H14  1  0.87439113  0.46916292  0.15381223  1
  H  H15  1  0.81534970  0.72057790  0.34618777  1
  H  H16  1  0.25000000  0.62500000  0.37500000  1
  H  H17  1  0.37500000  0.25000000  0.62500000  1
  H  H18  1  0.12500000  0.75000000  0.87500000  1
  H  H19  1  0.87500000  0.12500000  0.75000000  1
  H  H20  1  0.62500000  0.37500000  0.25000000  1
  H  H21  1  0.75000000  0.87500000  0.12500000  1
  H  H22  1  0.62560887  0.77942310  0.59477379  1
  H  H23  1  0.22057690  0.31534970  0.84618777  1
  H  H24  1  0.96916292  0.37439113  0.65381223  1
  H  H25  1  0.65381223  0.96916292  0.37439113  1
  H  H26  1  0.40522621  0.53083708  0.18465030  1
  H  H27  1  0.18465030  0.40522621  0.53083708  1
  H  H28  1  0.31534970  0.84618777  0.22057790  1
  H  H29  1  0.03083708  0.90522621  0.68465030  1
  H  H30  1  0.34618777  0.81534970  0.72057690  1
  H  H31  1  0.46916292  0.15381223  0.87439113  1
  H  H32  1  0.90522621  0.68465030  0.03083708  1
  H  H33  1  0.72057790  0.34618777  0.81534970  1
  H  H34  1  0.15381223  0.87439113  0.46916292  1
  H  H35  1  0.59477379  0.62560887  0.77942210  1
  H  H36  1  0.77942310  0.59477379  0.62560887  1
  H  H37  1  0.68465030  0.03083708  0.90522621  1
