# generated using pymatgen
data_TiN
_symmetry_space_group_name_H-M   'P 1'
_cell_length_a   2.99901541
_cell_length_b   2.99901461
_cell_length_c   2.99901445
_cell_angle_alpha   59.99997908
_cell_angle_beta   59.99998798
_cell_angle_gamma   59.99998314
_symmetry_Int_Tables_number   1
_chemical_formula_structural   TiN
_chemical_formula_sum   'Ti1 N1'
_cell_volume   19.07307317
_cell_formula_units_Z   1
loop_
 _symmetry_equiv_pos_site_id
 _symmetry_equiv_pos_as_xyz
  1  'x, y, z'
loop_
 _atom_site_type_symbol
 _atom_site_label
 _atom_site_symmetry_multiplicity
 _atom_site_fract_x
 _atom_site_fract_y
 _atom_site_fract_z
 _atom_site_occupancy
  Ti  Ti0  1  0.00000000  0.00000000  -0.00000000  1
  N  N1  1  0.50000000  0.50000000  0.50000000  1
