# generated using pymatgen
data_Ti5O9
_symmetry_space_group_name_H-M   'P 1'
_cell_length_a   5.58406157
_cell_length_b   7.12422228
_cell_length_c   8.48650545
_cell_angle_alpha   69.66846529
_cell_angle_beta   75.37801253
_cell_angle_gamma   71.45366995
_symmetry_Int_Tables_number   1
_chemical_formula_structural   Ti5O9
_chemical_formula_sum   'Ti10 O18'
_cell_volume   296.28671313
_cell_formula_units_Z   2
loop_
 _symmetry_equiv_pos_site_id
 _symmetry_equiv_pos_as_xyz
  1  'x, y, z'
loop_
 _atom_site_type_symbol
 _atom_site_label
 _atom_site_symmetry_multiplicity
 _atom_site_fract_x
 _atom_site_fract_y
 _atom_site_fract_z
 _atom_site_occupancy
  Ti  Ti0  1  0.72809377  0.32562228  0.42381976  1
  Ti  Ti1  1  0.27190153  0.67438207  0.57618359  1
  Ti  Ti2  1  0.71723356  0.82906144  0.41800484  1
  Ti  Ti3  1  0.28274804  0.17094109  0.58199928  1
  Ti  Ti4  1  0.34757932  0.65602955  0.20386576  1
  Ti  Ti5  1  0.65241072  0.34397661  0.79613698  1
  Ti  Ti6  1  0.34879164  0.15571727  0.20688385  1
  Ti  Ti7  1  0.65123231  0.84428088  0.79311474  1
  Ti  Ti8  1  0.00001141  -0.00001622  0.00000288  1
  Ti  Ti9  1  -0.00001264  0.49999655  0.00000735  1
  O  O10  1  0.31265012  0.46918873  0.45805620  1
  O  O11  1  0.68734805  0.53081481  0.54194600  1
  O  O12  1  0.07193826  0.19569563  0.41944708  1
  O  O13  1  0.92805558  0.80430997  0.58054463  1
  O  O14  1  0.58499966  0.13495820  0.36742024  1
  O  O15  1  0.41500148  0.86504320  0.63258095  1
  O  O16  1  0.40791838  0.84520294  0.32514111  1
  O  O17  1  0.59208373  0.15480212  0.67485410  1
  O  O18  1  0.98317719  0.80755937  0.23898572  1
  O  O19  1  0.01681872  0.19243141  0.76102259  1
  O  O20  1  0.37493650  0.85280379  0.97917765  1
  O  O21  1  0.62507710  0.14719573  0.02081807  1
  O  O22  1  0.91826142  0.80312658  0.91881504  1
  O  O23  1  0.08174029  0.19687272  0.08118008  1
  O  O24  1  0.74029451  0.53801850  0.86337226  1
  O  O25  1  0.25970459  0.46198036  0.13662393  1
  O  O26  1  0.28332002  0.48826840  0.79651404  1
  O  O27  1  0.71668675  0.51173800  0.20347929  1
