# generated using pymatgen
data_Ti6O11
_symmetry_space_group_name_H-M   'P 1'
_cell_length_a   3.75601734
_cell_length_b   5.26969772
_cell_length_c   20.94557566
_cell_angle_alpha   92.43668522
_cell_angle_beta   90.00000000
_cell_angle_gamma   110.87797294
_symmetry_Int_Tables_number   1
_chemical_formula_structural   Ti6O11
_chemical_formula_sum   'Ti12 O22'
_cell_volume   386.95564023
_cell_formula_units_Z   2
loop_
 _symmetry_equiv_pos_site_id
 _symmetry_equiv_pos_as_xyz
  1  'x, y, z'
loop_
 _atom_site_type_symbol
 _atom_site_label
 _atom_site_symmetry_multiplicity
 _atom_site_fract_x
 _atom_site_fract_y
 _atom_site_fract_z
 _atom_site_occupancy
  Ti  Ti0  1  0.96870121  0.93740442  0.35390528  1
  Ti  Ti1  1  0.14007059  0.28014117  0.47450642  1
  Ti  Ti2  1  0.85992941  0.71985883  0.52549358  1
  Ti  Ti3  1  0.21984195  0.43968290  0.10900691  1
  Ti  Ti4  1  0.09439155  0.18878411  0.79576588  1
  Ti  Ti5  1  0.05323836  0.10647872  0.93974163  1
  Ti  Ti6  1  0.94676164  0.89352128  0.06025837  1
  Ti  Ti7  1  0.03129879  0.06259558  0.64609472  1
  Ti  Ti8  1  0.78015805  0.56031710  0.89099309  1
  Ti  Ti9  1  0.90560845  0.81121589  0.20423412  1
  Ti  Ti10  1  0.24047354  0.48094808  0.29704346  1
  Ti  Ti11  1  0.75952646  0.51905192  0.70295654  1
  O  O12  1  0.66533687  0.33067275  0.79267614  1
  O  O13  1  0.23217715  0.46435430  0.87863109  1
  O  O14  1  0.42347188  0.84694275  0.34614431  1
  O  O15  1  0.40731359  0.81462618  0.06998911  1
  O  O16  1  0.59268641  0.18537382  0.93001089  1
  O  O17  1  0.84113455  0.68226910  0.62025763  1
  O  O18  1  0.33466313  0.66932725  0.20732386  1
  O  O19  1  0.86724843  0.73449486  0.97176826  1
  O  O20  1  0.15886545  0.31773090  0.37974237  1
  O  O21  1  0.13275157  0.26550514  0.02823174  1
  O  O22  1  0.79054918  0.58109936  0.29102345  1
  O  O23  1  0.32292540  0.64585179  0.51973908  1
  O  O24  1  0.20945082  0.41890064  0.70897655  1
  O  O25  1  0.95032791  0.90065582  0.44401915  1
  O  O26  1  0.76782285  0.53564570  0.12136891  1
  O  O27  1  0.94428740  0.88857581  0.73113057  1
  O  O28  1  0.05571260  0.11142419  0.26886943  1
  O  O29  1  0.67707460  0.35414821  0.48026092  1
  O  O30  1  0.04967209  0.09934418  0.55598085  1
  O  O31  1  0.95262924  0.90525847  0.85235179  1
  O  O32  1  0.57652812  0.15305725  0.65385569  1
  O  O33  1  0.04737076  0.09474153  0.14764821  1
