# generated using pymatgen
data_Ti13S24
_symmetry_space_group_name_H-M   'P 1'
_cell_length_a   8.99818397
_cell_length_b   9.01032488
_cell_length_c   10.27190074
_cell_angle_alpha   112.36207898
_cell_angle_beta   112.42319463
_cell_angle_gamma   82.47642767
_symmetry_Int_Tables_number   1
_chemical_formula_structural   Ti13S24
_chemical_formula_sum   'Ti13 S24'
_cell_volume   711.85121774
_cell_formula_units_Z   1
loop_
 _symmetry_equiv_pos_site_id
 _symmetry_equiv_pos_as_xyz
  1  'x, y, z'
loop_
 _atom_site_type_symbol
 _atom_site_label
 _atom_site_symmetry_multiplicity
 _atom_site_fract_x
 _atom_site_fract_y
 _atom_site_fract_z
 _atom_site_occupancy
  Ti  Ti0  1  0.48996501  0.50503098  0.66681949  1
  Ti  Ti1  1  0.99516284  0.99836872  0.66011780  1
  Ti  Ti2  1  0.74673705  0.24915161  0.83179884  1
  Ti  Ti3  1  -0.00000000  0.50000000  -0.00000000  1
  Ti  Ti4  1  0.24632851  0.75954978  0.83267517  1
  Ti  Ti5  1  0.50000000  0.50000000  -0.00000000  1
  Ti  Ti6  1  -0.00000000  -0.00000000  -0.00000000  1
  Ti  Ti7  1  0.75367149  0.24045022  0.16732483  1
  Ti  Ti8  1  0.25326295  0.75084839  0.16820116  1
  Ti  Ti9  1  0.51003499  0.49496902  0.33318051  1
  Ti  Ti10  1  0.00483716  0.00163128  0.33988220  1
  Ti  Ti11  1  0.75020546  0.24393225  0.49604203  1
  Ti  Ti12  1  0.24979454  0.75606775  0.50395797  1
  S  S13  1  0.46279330  0.29670891  0.75309122  1
  S  S14  1  0.96194491  0.79885148  0.75348185  1
  S  S15  1  0.71262826  0.04502311  0.91858431  1
  S  S16  1  0.20788649  0.54180744  0.91596131  1
  S  S17  1  0.79144140  0.45831620  0.75000585  1
  S  S18  1  0.28617201  0.95729168  0.74713955  1
  S  S19  1  0.46643158  0.29669210  0.08644291  1
  S  S20  1  0.95788366  0.79154900  0.08344633  1
  S  S21  1  0.04211634  0.20845100  0.91655367  1
  S  S22  1  0.53356842  0.70330790  0.91355709  1
  S  S23  1  0.20855860  0.54168380  0.24999415  1
  S  S24  1  0.71382799  0.04270832  0.25286045  1
  S  S25  1  0.79211351  0.45819256  0.08403869  1
  S  S26  1  0.28737174  0.95497689  0.08141569  1
  S  S27  1  0.46668387  0.29829107  0.42275502  1
  S  S28  1  0.96154307  0.79560427  0.41869567  1
  S  S29  1  0.03805509  0.20114852  0.24651815  1
  S  S30  1  0.53720670  0.70329109  0.24690878  1
  S  S31  1  0.21001643  0.54944794  0.58698043  1
  S  S32  1  0.71054552  0.04521211  0.58553605  1
  S  S33  1  0.78998357  0.45055206  0.41301957  1
  S  S34  1  0.28945448  0.95478789  0.41446395  1
  S  S35  1  0.03845693  0.20439573  0.58130433  1
  S  S36  1  0.53331613  0.70170893  0.57724498  1
