# generated using pymatgen
data_Ti8O15
_symmetry_space_group_name_H-M   'P 1'
_cell_length_a   5.53697860
_cell_length_b   7.13289305
_cell_length_c   13.40114958
_cell_angle_alpha   100.49190877
_cell_angle_beta   96.34289206
_cell_angle_gamma   108.45137584
_symmetry_Int_Tables_number   1
_chemical_formula_structural   Ti8O15
_chemical_formula_sum   'Ti16 O30'
_cell_volume   485.58659154
_cell_formula_units_Z   2
loop_
 _symmetry_equiv_pos_site_id
 _symmetry_equiv_pos_as_xyz
  1  'x, y, z'
loop_
 _atom_site_type_symbol
 _atom_site_label
 _atom_site_symmetry_multiplicity
 _atom_site_fract_x
 _atom_site_fract_y
 _atom_site_fract_z
 _atom_site_occupancy
  Ti  Ti0  1  0.22964899  0.72270005  0.54537755  1
  Ti  Ti1  1  0.77604618  0.77679114  0.44934141  1
  Ti  Ti2  1  0.51658218  0.81522295  0.80742627  1
  Ti  Ti3  1  0.48341782  0.18477705  0.19257373  1
  Ti  Ti4  1  0.77035101  0.27729995  0.45462245  1
  Ti  Ti5  1  0.83495158  0.89885009  0.06384510  1
  Ti  Ti6  1  0.14158899  0.46671198  0.31938189  1
  Ti  Ti7  1  0.82683011  0.39775977  0.06487521  1
  Ti  Ti8  1  0.86141528  0.02984801  0.67862997  1
  Ti  Ti9  1  0.16504842  0.10114991  0.93615490  1
  Ti  Ti10  1  0.48878211  0.68919413  0.19000615  1
  Ti  Ti11  1  0.22395382  0.22320886  0.55065859  1
  Ti  Ti12  1  0.13858472  0.97015199  0.32137003  1
  Ti  Ti13  1  0.17316989  0.60224023  0.93512479  1
  Ti  Ti14  1  0.51121789  0.31080587  0.80999385  1
  Ti  Ti15  1  0.85841101  0.53328802  0.68061811  1
  O  O16  1  0.85193032  0.85489051  0.21119056  1
  O  O17  1  0.60039322  0.06642340  0.75700244  1
  O  O18  1  0.49052735  0.35203748  0.66037585  1
  O  O19  1  0.14806968  0.14510949  0.78880944  1
  O  O20  1  0.57436500  0.85717609  0.54896511  1
  O  O21  1  0.80111829  0.93073278  0.92188196  1
  O  O22  1  0.58331783  0.44508018  0.15392455  1
  O  O23  1  0.73460791  0.14052640  0.11062414  1
  O  O24  1  0.39960678  0.93357660  0.24299756  1
  O  O25  1  0.23466300  0.23535331  0.28245628  1
  O  O26  1  0.91398100  0.26535283  0.60634477  1
  O  O27  1  0.76533700  0.76464669  0.71754372  1
  O  O28  1  0.08932421  0.94818127  0.57940197  1
  O  O29  1  0.12200822  0.52104982  0.18768271  1
  O  O30  1  0.19078540  0.44410864  0.47561485  1
  O  O31  1  0.92881998  0.65394928  0.02277138  1
  O  O32  1  0.50947265  0.64796252  0.33962415  1
  O  O33  1  0.42563500  0.14282391  0.45103489  1
  O  O34  1  0.87799178  0.47895018  0.81231729  1
  O  O35  1  0.78026961  0.32448090  0.32154441  1
  O  O36  1  0.80921460  0.55589136  0.52438515  1
  O  O37  1  0.46264052  0.72331624  0.05381912  1
  O  O38  1  0.41668217  0.55491982  0.84607545  1
  O  O39  1  0.26539209  0.85947360  0.88937586  1
  O  O40  1  0.19888171  0.06926722  0.07811804  1
  O  O41  1  0.91067579  0.05181873  0.42059803  1
  O  O42  1  0.21973039  0.67551910  0.67845559  1
  O  O43  1  0.07118002  0.34605072  0.97722862  1
  O  O44  1  0.08601900  0.73464717  0.39365523  1
  O  O45  1  0.53735948  0.27668376  0.94618088  1
