# generated using pymatgen
data_TiAl2
_symmetry_space_group_name_H-M   'P 1'
_cell_length_a   3.91093511
_cell_length_b   3.98894172
_cell_length_c   6.34530781
_cell_angle_alpha   90.00000000
_cell_angle_beta   107.91149206
_cell_angle_gamma   90.00000000
_symmetry_Int_Tables_number   1
_chemical_formula_structural   TiAl2
_chemical_formula_sum   'Ti2 Al4'
_cell_volume   94.19215442
_cell_formula_units_Z   2
loop_
 _symmetry_equiv_pos_site_id
 _symmetry_equiv_pos_as_xyz
  1  'x, y, z'
loop_
 _atom_site_type_symbol
 _atom_site_label
 _atom_site_symmetry_multiplicity
 _atom_site_fract_x
 _atom_site_fract_y
 _atom_site_fract_z
 _atom_site_occupancy
  Ti  Ti0  1  0.65633596  0.00000000  0.31300839  1
  Ti  Ti1  1  0.34368711  0.00000000  0.68704803  1
  Al  Al2  1  -0.00000373  0.00000000  -0.00001799  1
  Al  Al3  1  0.49999889  0.50000000  -0.00001772  1
  Al  Al4  1  0.82761628  0.50000000  0.65499725  1
  Al  Al5  1  0.17236449  0.50000000  0.34498203  1
