# generated using pymatgen
data_Ti4H3
_symmetry_space_group_name_H-M   'P 1'
_cell_length_a   4.22111007
_cell_length_b   4.22111007
_cell_length_c   4.36890902
_cell_angle_alpha   90.00000000
_cell_angle_beta   90.00000000
_cell_angle_gamma   90.00000000
_symmetry_Int_Tables_number   1
_chemical_formula_structural   Ti4H3
_chemical_formula_sum   'Ti4 H3'
_cell_volume   77.84421704
_cell_formula_units_Z   1
loop_
 _symmetry_equiv_pos_site_id
 _symmetry_equiv_pos_as_xyz
  1  'x, y, z'
loop_
 _atom_site_type_symbol
 _atom_site_label
 _atom_site_symmetry_multiplicity
 _atom_site_fract_x
 _atom_site_fract_y
 _atom_site_fract_z
 _atom_site_occupancy
  Ti  Ti0  1  0.25549103  0.25549103  0.25972063  1
  Ti  Ti1  1  0.74450897  0.74450897  0.25972063  1
  Ti  Ti2  1  0.74450897  0.25549103  0.74027937  1
  Ti  Ti3  1  0.25549103  0.74450897  0.74027937  1
  H  H4  1  0.00000000  -0.00000000  -0.00000000  1
  H  H5  1  0.00000000  -0.00000000  0.50000000  1
  H  H6  1  0.50000000  0.50000000  -0.00000000  1
