# generated using pymatgen
data_Ti2S3
_symmetry_space_group_name_H-M   'P 1'
_cell_length_a   5.97890785
_cell_length_b   5.97893772
_cell_length_c   11.79272735
_cell_angle_alpha   75.46504470
_cell_angle_beta   75.46527863
_cell_angle_gamma   59.83529449
_symmetry_Int_Tables_number   1
_chemical_formula_structural   Ti2S3
_chemical_formula_sum   'Ti8 S12'
_cell_volume   348.86142215
_cell_formula_units_Z   4
loop_
 _symmetry_equiv_pos_site_id
 _symmetry_equiv_pos_as_xyz
  1  'x, y, z'
loop_
 _atom_site_type_symbol
 _atom_site_label
 _atom_site_symmetry_multiplicity
 _atom_site_fract_x
 _atom_site_fract_y
 _atom_site_fract_z
 _atom_site_occupancy
  Ti  Ti0  1  0.54019903  0.70827718  0.37906344  1
  Ti  Ti1  1  0.87214585  0.03749605  0.38252906  1
  Ti  Ti2  1  0.12787171  0.96247220  0.61747989  1
  Ti  Ti3  1  0.45980493  0.29174300  0.62094607  1
  Ti  Ti4  1  0.70828929  0.54019692  0.87902514  1
  Ti  Ti5  1  0.03750838  0.87214673  0.88250231  1
  Ti  Ti6  1  0.29172034  0.45980087  0.12094906  1
  Ti  Ti7  1  0.96249296  0.12785028  0.11748631  1
  S  S8  1  0.75631684  0.91484209  0.74766395  1
  S  S9  1  0.41339721  0.58660113  0.74998959  1
  S  S10  1  0.08515845  0.24366931  0.75233160  1
  S  S11  1  0.58662405  0.41341559  0.25005747  1
  S  S12  1  0.24367736  0.08507710  0.25239011  1
  S  S13  1  0.91477468  0.75633255  0.24772541  1
  S  S14  1  0.50001209  -0.00002445  0.49997581  1
  S  S15  1  0.16457949  0.65947474  0.49907229  1
  S  S16  1  0.83539644  0.34060193  0.50088409  1
  S  S17  1  0.34060056  0.83541716  0.00088903  1
  S  S18  1  0.99997182  0.50003901  -0.00002298  1
  S  S19  1  0.65945853  0.16457159  0.99906236  1
