# generated using pymatgen
data_Ti8N5
_symmetry_space_group_name_H-M   'P 1'
_cell_length_a   4.18815303
_cell_length_b   4.18815303
_cell_length_c   8.59513915
_cell_angle_alpha   90.00000000
_cell_angle_beta   90.00000000
_cell_angle_gamma   90.00000000
_symmetry_Int_Tables_number   1
_chemical_formula_structural   Ti8N5
_chemical_formula_sum   'Ti8 N5'
_cell_volume   150.76411955
_cell_formula_units_Z   1
loop_
 _symmetry_equiv_pos_site_id
 _symmetry_equiv_pos_as_xyz
  1  'x, y, z'
loop_
 _atom_site_type_symbol
 _atom_site_label
 _atom_site_symmetry_multiplicity
 _atom_site_fract_x
 _atom_site_fract_y
 _atom_site_fract_z
 _atom_site_occupancy
  Ti  Ti0  1  -0.00000000  0.00000000  0.74400741  1
  Ti  Ti1  1  0.50000000  0.50000000  0.24139498  1
  Ti  Ti2  1  -0.00000000  0.50000000  0.01556421  1
  Ti  Ti3  1  0.50000000  -0.00000000  0.51421652  1
  Ti  Ti4  1  0.00000000  0.00000000  0.25599259  1
  Ti  Ti5  1  0.50000000  0.50000000  0.75860502  1
  Ti  Ti6  1  0.50000000  0.00000000  0.98443579  1
  Ti  Ti7  1  0.00000000  0.50000000  0.48578348  1
  N  N8  1  0.50000000  0.50000000  -0.00000000  1
  N  N9  1  0.00000000  0.00000000  0.50000000  1
  N  N10  1  0.50000000  -0.00000000  0.75098268  1
  N  N11  1  -0.00000000  0.50000000  0.24901732  1
  N  N12  1  -0.00000000  0.00000000  -0.00000000  1
