# generated using pymatgen
data_Ti2C
_symmetry_space_group_name_H-M   'P 1'
_cell_length_a   6.09879390
_cell_length_b   6.09879312
_cell_length_c   6.09879167
_cell_angle_alpha   59.99999118
_cell_angle_beta   59.99999544
_cell_angle_gamma   59.99999588
_symmetry_Int_Tables_number   1
_chemical_formula_structural   Ti2C
_chemical_formula_sum   'Ti8 C4'
_cell_volume   160.40451986
_cell_formula_units_Z   4
loop_
 _symmetry_equiv_pos_site_id
 _symmetry_equiv_pos_as_xyz
  1  'x, y, z'
loop_
 _atom_site_type_symbol
 _atom_site_label
 _atom_site_symmetry_multiplicity
 _atom_site_fract_x
 _atom_site_fract_y
 _atom_site_fract_z
 _atom_site_occupancy
  Ti  Ti0  1  0.76818914  0.24393629  0.24393629  1
  Ti  Ti1  1  0.24393629  0.76818914  0.24393629  1
  Ti  Ti2  1  0.24393629  0.24393629  0.76818914  1
  Ti  Ti3  1  0.75606371  0.75606371  0.75606371  1
  Ti  Ti4  1  0.75606371  0.23181086  0.75606371  1
  Ti  Ti5  1  0.23181086  0.75606371  0.75606371  1
  Ti  Ti6  1  0.75606371  0.75606371  0.23181086  1
  Ti  Ti7  1  0.24393629  0.24393629  0.24393629  1
  C  C8  1  0.00000000  0.50000000  -0.00000000  1
  C  C9  1  0.50000000  0.00000000  -0.00000000  1
  C  C10  1  0.00000000  0.00000000  0.50000000  1
  C  C11  1  0.00000000  0.00000000  -0.00000000  1
