# generated using pymatgen
data_TmP5
_symmetry_space_group_name_H-M   'P 1'
_cell_length_a   4.92408805
_cell_length_b   5.31021113
_cell_length_c   9.32144808
_cell_angle_alpha   90.00000000
_cell_angle_beta   90.00000000
_cell_angle_gamma   102.40854846
_symmetry_Int_Tables_number   1
_chemical_formula_structural   TmP5
_chemical_formula_sum   'Tm2 P10'
_cell_volume   238.04309809
_cell_formula_units_Z   2
loop_
 _symmetry_equiv_pos_site_id
 _symmetry_equiv_pos_as_xyz
  1  'x, y, z'
loop_
 _atom_site_type_symbol
 _atom_site_label
 _atom_site_symmetry_multiplicity
 _atom_site_fract_x
 _atom_site_fract_y
 _atom_site_fract_z
 _atom_site_occupancy
  Tm  Tm0  1  0.00079846  0.34730864  0.25000000  1
  Tm  Tm1  1  0.99920154  0.65269136  0.75000000  1
  P  P2  1  0.27583644  0.89138020  0.25000000  1
  P  P3  1  0.72416356  0.10861980  0.75000000  1
  P  P4  1  0.61523602  0.95568357  0.40714736  1
  P  P5  1  0.38476398  0.04431643  0.90714736  1
  P  P6  1  0.38476398  0.04431643  0.59285264  1
  P  P7  1  0.61523602  0.95568357  0.09285264  1
  P  P8  1  0.71425681  0.59633241  0.47155029  1
  P  P9  1  0.28574319  0.40366759  0.97155029  1
  P  P10  1  0.28574319  0.40366759  0.52844971  1
  P  P11  1  0.71425681  0.59633241  0.02844971  1
