# generated using pymatgen
data_Tm2C
_symmetry_space_group_name_H-M   'P 1'
_cell_length_a   3.53316648
_cell_length_b   3.53316648
_cell_length_c   6.28347666
_cell_angle_alpha   73.67128815
_cell_angle_beta   90.00000000
_cell_angle_gamma   119.99999993
_symmetry_Int_Tables_number   1
_chemical_formula_structural   Tm2C
_chemical_formula_sum   'Tm2 C1'
_cell_volume   64.25031039
_cell_formula_units_Z   1
loop_
 _symmetry_equiv_pos_site_id
 _symmetry_equiv_pos_as_xyz
  1  'x, y, z'
loop_
 _atom_site_type_symbol
 _atom_site_label
 _atom_site_symmetry_multiplicity
 _atom_site_fract_x
 _atom_site_fract_y
 _atom_site_fract_z
 _atom_site_occupancy
  Tm  Tm0  1  0.99023846  0.98047593  0.02928561  1
  Tm  Tm1  1  0.50976154  0.01952407  0.47071439  1
  C  C2  1  0.25000000  0.50000000  0.25000000  1
