# generated using pymatgen
data_UP
_symmetry_space_group_name_H-M   'P 1'
_cell_length_a   4.03857211
_cell_length_b   4.03857068
_cell_length_c   4.03857219
_cell_angle_alpha   60.00000617
_cell_angle_beta   60.00001779
_cell_angle_gamma   60.00000545
_symmetry_Int_Tables_number   1
_chemical_formula_structural   UP
_chemical_formula_sum   'U1 P1'
_cell_volume   46.57667459
_cell_formula_units_Z   1
loop_
 _symmetry_equiv_pos_site_id
 _symmetry_equiv_pos_as_xyz
  1  'x, y, z'
loop_
 _atom_site_type_symbol
 _atom_site_label
 _atom_site_symmetry_multiplicity
 _atom_site_fract_x
 _atom_site_fract_y
 _atom_site_fract_z
 _atom_site_occupancy
  U  U0  1  0.00000000  0.00000000  -0.00000000  1
  P  P1  1  0.50000000  0.50000000  0.50000000  1
