# generated using pymatgen
data_U11S20
_symmetry_space_group_name_H-M   'P 1'
_cell_length_a   6.45054587
_cell_length_b   10.32769921
_cell_length_c   10.34786000
_cell_angle_alpha   90.05842185
_cell_angle_beta   90.00831866
_cell_angle_gamma   90.03145781
_symmetry_Int_Tables_number   1
_chemical_formula_structural   U11S20
_chemical_formula_sum   'U11 S20'
_cell_volume   689.36669331
_cell_formula_units_Z   1
loop_
 _symmetry_equiv_pos_site_id
 _symmetry_equiv_pos_as_xyz
  1  'x, y, z'
loop_
 _atom_site_type_symbol
 _atom_site_label
 _atom_site_symmetry_multiplicity
 _atom_site_fract_x
 _atom_site_fract_y
 _atom_site_fract_z
 _atom_site_occupancy
  U  U0  1  0.25089585  0.89556794  0.09640176  1
  U  U1  1  0.75199673  0.60266149  0.08704809  1
  U  U2  1  0.75179510  0.89771291  0.41304271  1
  U  U3  1  0.25180179  0.60384039  0.40429281  1
  U  U4  1  0.75346110  0.08873059  0.89694294  1
  U  U5  1  0.25074206  0.40480826  0.89796234  1
  U  U6  1  0.25017068  0.09548247  0.60138763  1
  U  U7  1  0.75251953  0.41115738  0.60318895  1
  U  U8  1  0.14270086  0.75091056  0.74997976  1
  U  U9  1  0.35736676  0.25000440  0.24988717  1
  U  U10  1  0.85822478  0.25005576  0.24994104  1
  S  S11  1  0.37333456  0.84121019  0.53680649  1
  S  S12  1  0.89667096  0.65948182  0.54079770  1
  S  S13  1  0.89607453  0.84023248  0.96007798  1
  S  S14  1  0.37273744  0.65954801  0.96340324  1
  S  S15  1  0.89520919  0.53983438  0.83994819  1
  S  S16  1  0.37201412  0.95912789  0.83882672  1
  S  S17  1  0.37484375  0.53990325  0.66039363  1
  S  S18  1  0.89501517  0.96048979  0.65962737  1
  S  S19  1  0.61378035  0.16187840  0.45380069  1
  S  S20  1  0.11299244  0.33874657  0.45261564  1
  S  S21  1  0.11316379  0.16097754  0.04717397  1
  S  S22  1  0.61392790  0.33833822  0.04602796  1
  S  S23  1  0.11214193  0.45241263  0.16147576  1
  S  S24  1  0.61332028  0.04591261  0.16148746  1
  S  S25  1  0.61385080  0.45411262  0.33841731  1
  S  S26  1  0.11185186  0.04761147  0.33821576  1
  S  S27  1  0.50565503  0.74998965  0.25013677  1
  S  S28  1  -0.00066724  0.74965881  0.25060841  1
  S  S29  1  0.00287605  0.25011479  0.74988218  1
  S  S30  1  0.50373583  0.24948773  0.75020158  1
