# generated using pymatgen
data_U3S5
_symmetry_space_group_name_H-M   'P 1'
_cell_length_a   7.46860755
_cell_length_b   8.02007232
_cell_length_c   11.91876519
_cell_angle_alpha   90.00000000
_cell_angle_beta   90.00000000
_cell_angle_gamma   90.00000000
_symmetry_Int_Tables_number   1
_chemical_formula_structural   U3S5
_chemical_formula_sum   'U12 S20'
_cell_volume   713.91940675
_cell_formula_units_Z   4
loop_
 _symmetry_equiv_pos_site_id
 _symmetry_equiv_pos_as_xyz
  1  'x, y, z'
loop_
 _atom_site_type_symbol
 _atom_site_label
 _atom_site_symmetry_multiplicity
 _atom_site_fract_x
 _atom_site_fract_y
 _atom_site_fract_z
 _atom_site_occupancy
  U  U0  1  0.92628682  0.75000000  0.49124164  1
  U  U1  1  0.42628682  0.25000000  0.00875836  1
  U  U2  1  0.07371318  0.25000000  0.50875836  1
  U  U3  1  0.57371318  0.75000000  0.99124164  1
  U  U4  1  0.47936304  0.99937126  0.32212698  1
  U  U5  1  0.97936304  0.00062874  0.17787302  1
  U  U6  1  0.52063696  0.49937126  0.67787302  1
  U  U7  1  0.02063696  0.50062874  0.82212698  1
  U  U8  1  0.52063696  0.00062874  0.67787302  1
  U  U9  1  0.02063696  0.99937126  0.82212698  1
  U  U10  1  0.47936304  0.50062874  0.32212698  1
  U  U11  1  0.97936304  0.49937126  0.17787302  1
  S  S12  1  0.17181591  0.75000000  0.31337935  1
  S  S13  1  0.67181591  0.25000000  0.18662065  1
  S  S14  1  0.82818409  0.25000000  0.68662065  1
  S  S15  1  0.32818409  0.75000000  0.81337935  1
  S  S16  1  0.54089563  0.75000000  0.50099600  1
  S  S17  1  0.04089563  0.25000000  -0.00099600  1
  S  S18  1  0.45910437  0.25000000  0.49900400  1
  S  S19  1  0.95910437  0.75000000  0.00099600  1
  S  S20  1  0.80135182  0.75000000  0.71630608  1
  S  S21  1  0.30135182  0.25000000  0.78369392  1
  S  S22  1  0.19864818  0.25000000  0.28369392  1
  S  S23  1  0.69864818  0.75000000  0.21630608  1
  S  S24  1  0.16256686  0.54290182  0.59943349  1
  S  S25  1  0.66256686  0.45709818  0.90056651  1
  S  S26  1  0.83743314  0.04290182  0.40056651  1
  S  S27  1  0.33743314  0.95709818  0.09943349  1
  S  S28  1  0.83743314  0.45709818  0.40056651  1
  S  S29  1  0.33743314  0.54290182  0.09943349  1
  S  S30  1  0.16256686  0.95709818  0.59943349  1
  S  S31  1  0.66256686  0.04290182  0.90056651  1
