# generated using pymatgen
data_UCl5
_symmetry_space_group_name_H-M   'P 1'
_cell_length_a   6.91335400
_cell_length_b   7.54583695
_cell_length_c   10.26720503
_cell_angle_alpha   108.54983082
_cell_angle_beta   91.04258329
_cell_angle_gamma   116.20380668
_symmetry_Int_Tables_number   1
_chemical_formula_structural   UCl5
_chemical_formula_sum   'U2 Cl10'
_cell_volume   447.60137950
_cell_formula_units_Z   2
loop_
 _symmetry_equiv_pos_site_id
 _symmetry_equiv_pos_as_xyz
  1  'x, y, z'
loop_
 _atom_site_type_symbol
 _atom_site_label
 _atom_site_symmetry_multiplicity
 _atom_site_fract_x
 _atom_site_fract_y
 _atom_site_fract_z
 _atom_site_occupancy
  U  U0  1  0.89256900  0.00052000  0.21128400  1
  U  U1  1  0.10743100  0.99948000  0.78871600  1
  Cl  Cl2  1  0.51740300  0.77182200  0.42042400  1
  Cl  Cl3  1  0.48259700  0.22817800  0.57957600  1
  Cl  Cl4  1  0.27264500  0.21346300  0.95754000  1
  Cl  Cl5  1  0.72735500  0.78653700  0.04246000  1
  Cl  Cl6  1  0.25510500  0.77050800  0.84769500  1
  Cl  Cl7  1  0.74489500  0.22949200  0.15230500  1
  Cl  Cl8  1  0.95159200  0.22895200  0.74776300  1
  Cl  Cl9  1  0.04840800  0.77104800  0.25223700  1
  Cl  Cl10  1  0.89463300  0.76620400  0.67350000  1
  Cl  Cl11  1  0.10536700  0.23379600  0.32650000  1
