# generated using pymatgen
data_UCl4
_symmetry_space_group_name_H-M   'P 1'
_cell_length_a   7.02740344
_cell_length_b   7.02740296
_cell_length_c   7.02740324
_cell_angle_alpha   107.16976406
_cell_angle_beta   107.17122575
_cell_angle_gamma   114.17768390
_symmetry_Int_Tables_number   1
_chemical_formula_structural   UCl4
_chemical_formula_sum   'U2 Cl8'
_cell_volume   265.79122684
_cell_formula_units_Z   2
loop_
 _symmetry_equiv_pos_site_id
 _symmetry_equiv_pos_as_xyz
  1  'x, y, z'
loop_
 _atom_site_type_symbol
 _atom_site_label
 _atom_site_symmetry_multiplicity
 _atom_site_fract_x
 _atom_site_fract_y
 _atom_site_fract_z
 _atom_site_occupancy
  U  U0  1  0.87499363  0.12499363  0.75000000  1
  U  U1  1  0.12500637  0.87500637  0.25000000  1
  Cl  Cl2  1  0.19653298  0.25626183  0.55973085  1
  Cl  Cl3  1  0.63679344  0.19652582  0.44026562  1
  Cl  Cl4  1  0.36320656  0.80347418  0.55973438  1
  Cl  Cl5  1  0.80346702  0.74373817  0.44026915  1
  Cl  Cl6  1  0.80346702  0.36319887  0.05973085  1
  Cl  Cl7  1  0.74374080  0.80347418  0.94026562  1
  Cl  Cl8  1  0.19653298  0.63680113  0.94026915  1
  Cl  Cl9  1  0.25625920  0.19652582  0.05973438  1
