# generated using pymatgen
data_UH3
_symmetry_space_group_name_H-M   'P 1'
_cell_length_a   4.13959234
_cell_length_b   4.20994663
_cell_length_c   4.20877937
_cell_angle_alpha   90.00000000
_cell_angle_beta   90.00000000
_cell_angle_gamma   90.00000000
_symmetry_Int_Tables_number   1
_chemical_formula_structural   UH3
_chemical_formula_sum   'U2 H6'
_cell_volume   73.34834599
_cell_formula_units_Z   2
loop_
 _symmetry_equiv_pos_site_id
 _symmetry_equiv_pos_as_xyz
  1  'x, y, z'
loop_
 _atom_site_type_symbol
 _atom_site_label
 _atom_site_symmetry_multiplicity
 _atom_site_fract_x
 _atom_site_fract_y
 _atom_site_fract_z
 _atom_site_occupancy
  U  U0  1  0.50000000  0.50000000  0.50000000  1
  U  U1  1  -0.00000000  0.00000000  0.00000000  1
  H  H2  1  0.50000000  0.25105198  0.00000000  1
  H  H3  1  0.50000000  0.74894802  0.00000000  1
  H  H4  1  0.24994913  0.00000000  0.50000000  1
  H  H5  1  0.75005087  -0.00000000  0.50000000  1
  H  H6  1  -0.00000000  0.50000000  0.24922040  1
  H  H7  1  -0.00000000  0.50000000  0.75077960  1
