# generated using pymatgen
data_US3
_symmetry_space_group_name_H-M   'P 1'
_cell_length_a   3.97434356
_cell_length_b   5.45750327
_cell_length_c   9.31530023
_cell_angle_alpha   97.65369053
_cell_angle_beta   90.00000000
_cell_angle_gamma   90.00000000
_symmetry_Int_Tables_number   1
_chemical_formula_structural   US3
_chemical_formula_sum   'U2 S6'
_cell_volume   200.24877826
_cell_formula_units_Z   2
loop_
 _symmetry_equiv_pos_site_id
 _symmetry_equiv_pos_as_xyz
  1  'x, y, z'
loop_
 _atom_site_type_symbol
 _atom_site_label
 _atom_site_symmetry_multiplicity
 _atom_site_fract_x
 _atom_site_fract_y
 _atom_site_fract_z
 _atom_site_occupancy
  U  U0  1  0.25000000  0.28512757  0.14970580  1
  U  U1  1  0.75000000  0.71487243  0.85029420  1
  S  S2  1  0.25000000  0.86329687  0.67308262  1
  S  S3  1  0.75000000  0.13670313  0.32691738  1
  S  S4  1  0.75000000  0.51499113  0.32650170  1
  S  S5  1  0.25000000  0.48500887  0.67349830  1
  S  S6  1  0.75000000  0.23651308  0.94164807  1
  S  S7  1  0.25000000  0.76348692  0.05835193  1
