# generated using pymatgen
data_US2
_symmetry_space_group_name_H-M   'P 1'
_cell_length_a   7.21064808
_cell_length_b   7.21065365
_cell_length_c   3.95604488
_cell_angle_alpha   90.00000000
_cell_angle_beta   90.00000000
_cell_angle_gamma   120.00003211
_symmetry_Int_Tables_number   1
_chemical_formula_structural   US2
_chemical_formula_sum   'U3 S6'
_cell_volume   178.13146382
_cell_formula_units_Z   3
loop_
 _symmetry_equiv_pos_site_id
 _symmetry_equiv_pos_as_xyz
  1  'x, y, z'
loop_
 _atom_site_type_symbol
 _atom_site_label
 _atom_site_symmetry_multiplicity
 _atom_site_fract_x
 _atom_site_fract_y
 _atom_site_fract_z
 _atom_site_occupancy
  U  U0  1  0.66666782  0.33332893  0.50000000  1
  U  U1  1  0.33333218  0.66666211  0.50000000  1
  U  U2  1  0.00000000  -0.00000138  0.00000000  1
  S  S3  1  0.00000000  0.59377201  -0.00000000  1
  S  S4  1  0.40622764  0.40622948  0.00000000  1
  S  S5  1  0.59377236  0.00000185  -0.00000000  1
  S  S6  1  0.25847348  0.00000307  0.50000000  1
  S  S7  1  0.74152652  0.74152959  0.50000000  1
  S  S8  1  0.00000000  0.25847534  0.50000000  1
