# generated using pymatgen
data_U3O8
_symmetry_space_group_name_H-M   'P 1'
_cell_length_a   6.74486028
_cell_length_b   6.74510643
_cell_length_c   8.30762631
_cell_angle_alpha   90.00000000
_cell_angle_beta   90.00000000
_cell_angle_gamma   117.17027363
_symmetry_Int_Tables_number   1
_chemical_formula_structural   U3O8
_chemical_formula_sum   'U6 O16'
_cell_volume   336.24788648
_cell_formula_units_Z   2
loop_
 _symmetry_equiv_pos_site_id
 _symmetry_equiv_pos_as_xyz
  1  'x, y, z'
loop_
 _atom_site_type_symbol
 _atom_site_label
 _atom_site_symmetry_multiplicity
 _atom_site_fract_x
 _atom_site_fract_y
 _atom_site_fract_z
 _atom_site_occupancy
  U  U0  1  0.65167006  0.34816928  0.25000000  1
  U  U1  1  0.98808860  0.01201632  0.75000000  1
  U  U2  1  0.66612739  0.33380319  0.75000000  1
  U  U3  1  0.34832994  0.65183072  0.75000000  1
  U  U4  1  0.01191140  0.98798368  0.25000000  1
  U  U5  1  0.33387261  0.66619681  0.25000000  1
  O  O6  1  0.99364549  0.37237345  0.75000000  1
  O  O7  1  0.65229117  0.34754840  0.01770546  1
  O  O8  1  0.66248356  0.70341494  0.25000000  1
  O  O9  1  0.00635451  0.62762655  0.25000000  1
  O  O10  1  0.65229117  0.34754840  0.48229454  1
  O  O11  1  0.16978019  0.83105106  0.75000000  1
  O  O12  1  0.34770883  0.65245160  0.98229454  1
  O  O13  1  0.29620004  0.33750456  0.25000000  1
  O  O14  1  0.37187714  0.99361507  0.25000000  1
  O  O15  1  0.70379996  0.66249544  0.75000000  1
  O  O16  1  -0.00000000  -0.00000000  -0.00000000  1
  O  O17  1  0.34770883  0.65245160  0.51770546  1
  O  O18  1  0.62812286  0.00638493  0.75000000  1
  O  O19  1  0.33751644  0.29658506  0.75000000  1
  O  O20  1  -0.00000000  -0.00000000  0.50000000  1
  O  O21  1  0.83021981  0.16894894  0.25000000  1
