# generated using pymatgen
data_UAl2
_symmetry_space_group_name_H-M   'P 1'
_cell_length_a   5.58224867
_cell_length_b   5.58224998
_cell_length_c   16.95052385
_cell_angle_alpha   90.00000000
_cell_angle_beta   90.00000000
_cell_angle_gamma   120.00000448
_symmetry_Int_Tables_number   1
_chemical_formula_structural   UAl2
_chemical_formula_sum   'U8 Al16'
_cell_volume   457.43795483
_cell_formula_units_Z   8
loop_
 _symmetry_equiv_pos_site_id
 _symmetry_equiv_pos_as_xyz
  1  'x, y, z'
loop_
 _atom_site_type_symbol
 _atom_site_label
 _atom_site_symmetry_multiplicity
 _atom_site_fract_x
 _atom_site_fract_y
 _atom_site_fract_z
 _atom_site_occupancy
  U  U0  1  0.33333300  0.66666700  0.82443018  1
  U  U1  1  0.00000000  0.00000000  0.08321767  1
  U  U2  1  0.00000000  0.00000000  0.91678233  1
  U  U3  1  0.66666700  0.33333300  0.17556982  1
  U  U4  1  0.00000000  0.00000000  0.58321767  1
  U  U5  1  0.66666700  0.33333300  0.32443018  1
  U  U6  1  0.00000000  0.00000000  0.41678233  1
  U  U7  1  0.33333300  0.66666700  0.67556982  1
  Al  Al8  1  0.84180880  0.15819120  0.75000000  1
  Al  Al9  1  0.50000000  0.00000000  0.50000000  1
  Al  Al10  1  0.31638340  0.15819120  0.75000000  1
  Al  Al11  1  0.50000000  0.50000000  0.50000000  1
  Al  Al12  1  0.15819120  0.84180880  0.25000000  1
  Al  Al13  1  0.84180880  0.68361660  0.75000000  1
  Al  Al14  1  0.66666700  0.33333300  0.62785201  1
  Al  Al15  1  0.50000000  0.50000000  -0.00000000  1
  Al  Al16  1  0.00000000  0.50000000  0.50000000  1
  Al  Al17  1  0.15819120  0.31638340  0.25000000  1
  Al  Al18  1  0.33333300  0.66666700  0.37214699  1
  Al  Al19  1  0.68361660  0.84180880  0.25000000  1
  Al  Al20  1  0.66666700  0.33333300  0.87214799  1
  Al  Al21  1  0.50000000  0.00000000  -0.00000000  1
  Al  Al22  1  0.33333300  0.66666700  0.12785301  1
  Al  Al23  1  0.00000000  0.50000000  -0.00000000  1
