# generated using pymatgen
data_U2S5
_symmetry_space_group_name_H-M   'P 1'
_cell_length_a   7.54772340
_cell_length_b   7.46863830
_cell_length_c   9.93346045
_cell_angle_alpha   89.99995427
_cell_angle_beta   90.00008378
_cell_angle_gamma   90.00053030
_symmetry_Int_Tables_number   1
_chemical_formula_structural   U2S5
_chemical_formula_sum   'U8 S20'
_cell_volume   559.96124527
_cell_formula_units_Z   4
loop_
 _symmetry_equiv_pos_site_id
 _symmetry_equiv_pos_as_xyz
  1  'x, y, z'
loop_
 _atom_site_type_symbol
 _atom_site_label
 _atom_site_symmetry_multiplicity
 _atom_site_fract_x
 _atom_site_fract_y
 _atom_site_fract_z
 _atom_site_occupancy
  U  U0  1  0.22926164  0.01698465  0.85268029  1
  U  U1  1  0.27073812  0.51698207  0.64735079  1
  U  U2  1  0.72926432  0.98301815  0.64735057  1
  U  U3  1  0.77073508  0.48301699  0.85267837  1
  U  U4  1  0.77073617  0.98301453  0.14734042  1
  U  U5  1  0.72926273  0.48301538  0.35262843  1
  U  U6  1  0.27073648  0.01698317  0.35263177  1
  U  U7  1  0.22926126  0.51698480  0.14733806  1
  S  S8  1  0.36402509  0.38740402  0.39296950  1
  S  S9  1  0.13596617  0.88739750  0.10701109  1
  S  S10  1  0.86402526  0.61260201  0.10701091  1
  S  S11  1  0.63597725  0.11259875  0.39297079  1
  S  S12  1  0.63598169  0.61259225  0.60700866  1
  S  S13  1  0.86402379  0.11259968  0.89301091  1
  S  S14  1  0.13597095  0.38740100  0.89301034  1
  S  S15  1  0.36402267  0.88740737  0.60701029  1
  S  S16  1  0.89901902  0.84926382  0.39952367  1
  S  S17  1  0.60097752  0.34926098  0.10045987  1
  S  S18  1  0.39902086  0.15073312  0.10046558  1
  S  S19  1  0.10098506  0.65073370  0.39952257  1
  S  S20  1  0.10098711  0.15073091  0.60046069  1
  S  S21  1  0.39902389  0.65073201  0.89955369  1
  S  S22  1  0.60097895  0.84926923  0.89955357  1
  S  S23  1  0.89901853  0.34927444  0.60046150  1
  S  S24  1  -0.00000183  0.24999942  0.24873497  1
  S  S25  1  0.50000216  0.75000082  0.25124564  1
  S  S26  1  -0.00000105  0.74999859  0.75126564  1
  S  S27  1  0.50000211  0.25000065  0.74875341  1
