# generated using pymatgen
data_V7O13
_symmetry_space_group_name_H-M   'P 1'
_cell_length_a   5.44423134
_cell_length_b   7.00784784
_cell_length_c   11.14171378
_cell_angle_alpha   95.92374735
_cell_angle_beta   89.01527176
_cell_angle_gamma   109.15763868
_symmetry_Int_Tables_number   1
_chemical_formula_structural   V7O13
_chemical_formula_sum   'V14 O26'
_cell_volume   399.33398153
_cell_formula_units_Z   2
loop_
 _symmetry_equiv_pos_site_id
 _symmetry_equiv_pos_as_xyz
  1  'x, y, z'
loop_
 _atom_site_type_symbol
 _atom_site_label
 _atom_site_symmetry_multiplicity
 _atom_site_fract_x
 _atom_site_fract_y
 _atom_site_fract_z
 _atom_site_occupancy
  V  V0  1  0.00000000  0.50000000  0.50000000  1
  V  V1  1  0.00000000  -0.00000000  0.50000000  1
  V  V2  1  0.60992051  0.26419390  0.64840546  1
  V  V3  1  0.39007949  0.73580610  0.35159454  1
  V  V4  1  0.61255987  0.76408659  0.64279111  1
  V  V5  1  0.38744013  0.23591341  0.35720889  1
  V  V6  1  0.22253971  0.02475214  0.78954374  1
  V  V7  1  0.77746029  0.97524786  0.21045626  1
  V  V8  1  0.21330399  0.51648047  0.79306360  1
  V  V9  1  0.78669601  0.48351953  0.20693640  1
  V  V10  1  0.79668090  0.78643869  0.94271099  1
  V  V11  1  0.20331910  0.21356131  0.05728901  1
  V  V12  1  0.79466526  0.28632019  0.94601863  1
  V  V13  1  0.20533474  0.71367981  0.05398137  1
  O  O14  1  0.36818980  0.16990455  0.51439206  1
  O  O15  1  0.63181020  0.83009545  0.48560794  1
  O  O16  1  0.89244233  0.23115320  0.54958837  1
  O  O17  1  0.10755767  0.76884680  0.45041163  1
  O  O18  1  0.72164874  0.53271625  0.60050639  1
  O  O19  1  0.27835126  0.46728375  0.39949361  1
  O  O20  1  0.24698474  0.59774946  0.63830510  1
  O  O21  1  0.75301526  0.40225054  0.36169490  1
  O  O22  1  0.97324100  0.92699198  0.66910264  1
  O  O23  1  0.02675900  0.07300802  0.33089736  1
  O  O24  1  0.50421041  0.99227777  0.70352859  1
  O  O25  1  0.49578959  0.00772223  0.29647141  1
  O  O26  1  0.32257645  0.29525044  0.74909504  1
  O  O27  1  0.67742355  0.70474956  0.25090496  1
  O  O28  1  0.80231889  0.55060537  0.02707989  1
  O  O29  1  0.19768111  0.44939463  0.97292011  1
  O  O30  1  0.54415692  0.83597115  0.05697670  1
  O  O31  1  0.45584308  0.16402885  0.94302330  1
  O  O32  1  0.05071662  0.92903944  0.09289920  1
  O  O33  1  0.94928338  0.07096056  0.90710080  1
  O  O34  1  0.87001850  0.23406147  0.12373067  1
  O  O35  1  0.12998150  0.76593853  0.87626933  1
  O  O36  1  0.41924422  0.30916905  0.18040009  1
  O  O37  1  0.58075578  0.69083095  0.81959991  1
  O  O38  1  0.15055497  0.63609669  0.20931906  1
  O  O39  1  0.84944503  0.36390331  0.79068094  1
