# generated using pymatgen
data_V6C5
_symmetry_space_group_name_H-M   'P 1'
_cell_length_a   5.09042847
_cell_length_b   5.09043196
_cell_length_c   14.32604575
_cell_angle_alpha   90.00011068
_cell_angle_beta   89.99996175
_cell_angle_gamma   120.00018463
_symmetry_Int_Tables_number   1
_chemical_formula_structural   V6C5
_chemical_formula_sum   'V18 C15'
_cell_volume   321.48827128
_cell_formula_units_Z   3
loop_
 _symmetry_equiv_pos_site_id
 _symmetry_equiv_pos_as_xyz
  1  'x, y, z'
loop_
 _atom_site_type_symbol
 _atom_site_label
 _atom_site_symmetry_multiplicity
 _atom_site_fract_x
 _atom_site_fract_y
 _atom_site_fract_z
 _atom_site_occupancy
  V  V0  1  0.77806106  0.52896951  0.41491473  1
  V  V1  1  0.75090388  0.22194118  0.08159787  1
  V  V2  1  0.47103515  0.24909529  0.74826001  1
  V  V3  1  0.75089616  0.52895701  0.91840156  1
  V  V4  1  0.77806197  0.24909880  0.58508601  1
  V  V5  1  0.47103864  0.22193772  0.25174061  1
  V  V6  1  0.11080341  0.52756790  0.74905739  1
  V  V7  1  0.47243522  0.58323823  0.08239549  1
  V  V8  1  0.41676805  0.88919821  0.41571214  1
  V  V9  1  0.47244202  0.88919819  0.91760446  1
  V  V10  1  0.41676128  0.52756295  0.58428879  1
  V  V11  1  0.11080120  0.58324053  0.25094338  1
  V  V12  1  0.13543929  0.88855248  0.59037963  1
  V  V13  1  0.11144724  0.24689125  0.92369695  1
  V  V14  1  0.75311144  0.86455863  0.25703532  1
  V  V15  1  0.11144817  0.86456111  0.07630457  1
  V  V16  1  0.75311468  0.88855263  0.74296714  1
  V  V17  1  0.13543407  0.24688280  0.40962304  1
  C  C18  1  0.44007866  0.22004334  -0.00000952  1
  C  C19  1  0.77995453  0.55991109  0.66666121  1
  C  C20  1  0.77994656  0.22003493  0.33331894  1
  C  C21  1  0.11175420  0.55586915  -0.00000941  1
  C  C22  1  0.44412305  0.88824547  0.66666090  1
  C  C23  1  0.44414053  0.55589558  0.33331869  1
  C  C24  1  0.78400743  0.89200826  -0.00000945  1
  C  C25  1  0.10800095  0.21600153  0.66666131  1
  C  C26  1  0.10799054  0.89199018  0.33331871  1
  C  C27  1  0.44105418  0.22052952  0.50001284  1
  C  C28  1  0.77947511  0.55894672  0.16669136  1
  C  C29  1  0.77947025  0.22052424  0.83333668  1
  C  C30  1  0.10854317  0.55426985  0.50001209  1
  C  C31  1  0.44572586  0.89145684  0.16669075  1
  C  C32  1  0.44573001  0.55427287  0.83333582  1
