# generated using pymatgen
data_V2C
_symmetry_space_group_name_H-M   'P 1'
_cell_length_a   2.88252812
_cell_length_b   2.88249635
_cell_length_c   4.50107601
_cell_angle_alpha   89.99839389
_cell_angle_beta   89.99912874
_cell_angle_gamma   120.00020317
_symmetry_Int_Tables_number   1
_chemical_formula_structural   V2C
_chemical_formula_sum   'V2 C1'
_cell_volume   32.38831893
_cell_formula_units_Z   1
loop_
 _symmetry_equiv_pos_site_id
 _symmetry_equiv_pos_as_xyz
  1  'x, y, z'
loop_
 _atom_site_type_symbol
 _atom_site_label
 _atom_site_symmetry_multiplicity
 _atom_site_fract_x
 _atom_site_fract_y
 _atom_site_fract_z
 _atom_site_occupancy
  V  V0  1  0.66668779  0.33335838  0.74483153  1
  V  V1  1  0.33331221  0.66664162  0.25516847  1
  C  C2  1  0.00000000  -0.00000000  -0.00000000  1
