# generated using pymatgen
data_VCl5
_symmetry_space_group_name_H-M   'P 1'
_cell_length_a   6.41342400
_cell_length_b   6.93363935
_cell_length_c   9.25598784
_cell_angle_alpha   110.19962884
_cell_angle_beta   91.14823478
_cell_angle_gamma   115.86570337
_symmetry_Int_Tables_number   1
_chemical_formula_structural   VCl5
_chemical_formula_sum   'V2 Cl10'
_cell_volume   340.41197987
_cell_formula_units_Z   2
loop_
 _symmetry_equiv_pos_site_id
 _symmetry_equiv_pos_as_xyz
  1  'x, y, z'
loop_
 _atom_site_type_symbol
 _atom_site_label
 _atom_site_symmetry_multiplicity
 _atom_site_fract_x
 _atom_site_fract_y
 _atom_site_fract_z
 _atom_site_occupancy
  V  V0  1  0.11508800  0.00100300  0.27997800  1
  V  V1  1  0.88491200  0.99899700  0.72002200  1
  Cl  Cl2  1  0.26319300  0.21043700  0.45931100  1
  Cl  Cl3  1  0.73680700  0.78956300  0.54068900  1
  Cl  Cl4  1  0.25758500  0.78538500  0.34895100  1
  Cl  Cl5  1  0.74241500  0.21461500  0.65104900  1
  Cl  Cl6  1  0.48278000  0.23391000  0.08424500  1
  Cl  Cl7  1  0.51722000  0.76609000  0.91575500  1
  Cl  Cl8  1  0.95545800  0.22320700  0.25513900  1
  Cl  Cl9  1  0.04454200  0.77679300  0.74486100  1
  Cl  Cl10  1  0.89806500  0.76825300  0.17874400  1
  Cl  Cl11  1  0.10193500  0.23174700  0.82125600  1
