# generated using pymatgen
data_V7S8
_symmetry_space_group_name_H-M   'P 1'
_cell_length_a   6.38502084
_cell_length_b   6.38508810
_cell_length_c   18.03187714
_cell_angle_alpha   89.99689266
_cell_angle_beta   89.98952740
_cell_angle_gamma   119.98040961
_symmetry_Int_Tables_number   1
_chemical_formula_structural   V7S8
_chemical_formula_sum   'V21 S24'
_cell_volume   636.77568120
_cell_formula_units_Z   3
loop_
 _symmetry_equiv_pos_site_id
 _symmetry_equiv_pos_as_xyz
  1  'x, y, z'
loop_
 _atom_site_type_symbol
 _atom_site_label
 _atom_site_symmetry_multiplicity
 _atom_site_fract_x
 _atom_site_fract_y
 _atom_site_fract_z
 _atom_site_occupancy
  V  V0  1  0.50045800  0.50001900  0.49794100  1
  V  V1  1  0.99978600  0.49998800  0.83337700  1
  V  V2  1  0.49964900  0.99943000  0.16454700  1
  V  V3  1  0.00082700  0.50081100  0.50005000  1
  V  V4  1  0.50040700  0.50002700  0.16871200  1
  V  V5  1  0.49968800  0.99946100  0.83547100  1
  V  V6  1  0.49907700  0.50068800  0.66574700  1
  V  V7  1  0.99993400  0.49985900  0.99992100  1
  V  V8  1  0.50124400  0.00095300  0.33242800  1
  V  V9  1  0.99977000  0.49987600  0.33334700  1
  V  V10  1  0.49859300  0.49939300  0.00090000  1
  V  V11  1  0.50109100  0.00137900  0.66765600  1
  V  V12  1  0.00021700  0.00059200  0.50211200  1
  V  V13  1  0.00031800  0.00060500  0.83116400  1
  V  V14  1  0.99981900  0.00120900  0.16663300  1
  V  V15  1  0.99982900  0.99851500  0.99898100  1
  V  V16  1  0.00032800  0.99892000  0.33435200  1
  V  V17  1  0.00012300  0.50006100  0.66677200  1
  V  V18  1  0.49848600  0.99854400  0.50004100  1
  V  V19  1  0.50071500  0.49998600  0.83337500  1
  V  V20  1  0.99992400  0.49932700  0.16660700  1
  S  S21  1  0.33337500  0.66690000  0.58258100  1
  S  S22  1  0.33606400  0.67224600  0.91821900  1
  S  S23  1  0.33531500  0.66430200  0.25123700  1
  S  S24  1  0.66384000  0.33581700  0.41508000  1
  S  S25  1  0.66470900  0.32908300  0.08219500  1
  S  S26  1  0.66682000  0.33333300  0.75068400  1
  S  S27  1  0.16382800  0.32775200  0.74841700  1
  S  S28  1  0.17192000  0.83612200  0.08175600  1
  S  S29  1  0.66413500  0.82893800  0.41547100  1
  S  S30  1  0.82806000  0.66399000  0.25159000  1
  S  S31  1  0.33566500  0.16452300  0.91785700  1
  S  S32  1  0.83542200  0.16356400  0.58495900  1
  S  S33  1  0.16673400  0.33342700  0.08405700  1
  S  S34  1  0.16687600  0.83320400  0.41746600  1
  S  S35  1  0.67125100  0.83574900  0.74876300  1
  S  S36  1  0.83342100  0.66660700  0.91599300  1
  S  S37  1  0.32889400  0.16408500  0.58455100  1
  S  S38  1  0.83342800  0.16679700  0.24927600  1
  S  S39  1  0.17109900  0.33586700  0.41554000  1
  S  S40  1  0.16443000  0.83545600  0.74879700  1
  S  S41  1  0.66452800  0.83581100  0.08217200  1
  S  S42  1  0.83552600  0.67087500  0.58447800  1
  S  S43  1  0.33557500  0.17121700  0.25125200  1
  S  S44  1  0.82880300  0.16469200  0.91777900  1
