# generated using pymatgen
data_WCl4
_symmetry_space_group_name_H-M   'P 1'
_cell_length_a   6.46697931
_cell_length_b   6.89780175
_cell_length_c   7.08902796
_cell_angle_alpha   107.33021588
_cell_angle_beta   117.13739885
_cell_angle_gamma   62.04545372
_symmetry_Int_Tables_number   1
_chemical_formula_structural   WCl4
_chemical_formula_sum   'W2 Cl8'
_cell_volume   247.15422739
_cell_formula_units_Z   2
loop_
 _symmetry_equiv_pos_site_id
 _symmetry_equiv_pos_as_xyz
  1  'x, y, z'
loop_
 _atom_site_type_symbol
 _atom_site_label
 _atom_site_symmetry_multiplicity
 _atom_site_fract_x
 _atom_site_fract_y
 _atom_site_fract_z
 _atom_site_occupancy
  W  W0  1  0.20355092  0.00000000  -0.00000000  1
  W  W1  1  0.79644908  -0.00000000  0.00000000  1
  Cl  Cl2  1  0.67671801  0.79940361  0.15283763  1
  Cl  Cl3  1  0.21201760  0.75922143  0.18325563  1
  Cl  Cl4  1  0.25995234  0.25172956  0.29500964  1
  Cl  Cl5  1  0.78332474  0.25172956  0.29500964  1
  Cl  Cl6  1  0.21667426  0.74826944  0.70499036  1
  Cl  Cl7  1  0.74004666  0.74826944  0.70499036  1
  Cl  Cl8  1  0.78798240  0.24078057  0.81674437  1
  Cl  Cl9  1  0.32328299  0.20059539  0.84716237  1
