# generated using pymatgen
data_W25O73
_symmetry_space_group_name_H-M   'P 1'
_cell_length_a   3.86089600
_cell_length_b   12.25859152
_cell_length_c   60.11928148
_cell_angle_alpha   93.74101407
_cell_angle_beta   90.00000000
_cell_angle_gamma   90.00000000
_symmetry_Int_Tables_number   1
_chemical_formula_structural   W25O73
_chemical_formula_sum   'W50 O146'
_cell_volume   2839.33125317
_cell_formula_units_Z   2
loop_
 _symmetry_equiv_pos_site_id
 _symmetry_equiv_pos_as_xyz
  1  'x, y, z'
loop_
 _atom_site_type_symbol
 _atom_site_label
 _atom_site_symmetry_multiplicity
 _atom_site_fract_x
 _atom_site_fract_y
 _atom_site_fract_z
 _atom_site_occupancy
  W  W0  1  0.51748200  0.21142400  0.14987100  1
  W  W1  1  0.51570600  0.08276700  0.83091100  1
  W  W2  1  0.49746800  0.87650100  0.56769900  1
  W  W3  1  0.49020200  0.41208100  0.41102700  1
  W  W4  1  0.50979800  0.58791900  0.58897300  1
  W  W5  1  0.48438200  0.23474800  0.49504400  1
  W  W6  1  0.48361800  0.12583600  0.68971300  1
  W  W7  1  0.49020200  0.08791900  0.08897300  1
  W  W8  1  0.51706700  0.04079300  0.22940700  1
  W  W9  1  0.48429400  0.91723300  0.16908900  1
  W  W10  1  0.51320700  0.79427900  0.10819100  1
  W  W11  1  0.48426100  0.75000000  0.25000000  1
  W  W12  1  0.51573900  0.25000000  0.75000000  1
  W  W13  1  0.51428900  0.49719700  0.87109400  1
  W  W14  1  0.48361800  0.37416400  0.81028700  1
  W  W15  1  0.48429400  0.58276700  0.33091100  1
  W  W16  1  0.50253200  0.37650100  0.06769900  1
  W  W17  1  0.50253200  0.12349900  0.43230100  1
  W  W18  1  0.51706700  0.45920700  0.27059300  1
  W  W19  1  0.48215600  0.33512200  0.21043800  1
  W  W20  1  0.48571100  0.99719700  0.37109400  1
  W  W21  1  0.49746800  0.62349900  0.93230100  1
  W  W22  1  0.48293300  0.54079300  0.72940700  1
  W  W23  1  0.48293300  0.95920700  0.77059300  1
  W  W24  1  0.49633900  0.52953000  0.47299900  1
  W  W25  1  0.48251800  0.71142400  0.64987100  1
  W  W26  1  0.50366100  0.47047000  0.52700100  1
  W  W27  1  0.51428900  0.00280300  0.62890600  1
  W  W28  1  0.49633900  0.97047000  0.02700100  1
  W  W29  1  0.48679300  0.29427900  0.60819100  1
  W  W30  1  0.50366100  0.02953000  0.97299900  1
  W  W31  1  0.48571100  0.50280300  0.12890600  1
  W  W32  1  0.51075600  0.16710800  0.54692700  1
  W  W33  1  0.51784400  0.66487800  0.78956200  1
  W  W34  1  0.48924400  0.66710800  0.04692700  1
  W  W35  1  0.51075600  0.33289200  0.95307300  1
  W  W36  1  0.48438200  0.26525200  0.00495600  1
  W  W37  1  0.51561800  0.73474800  0.99504400  1
  W  W38  1  0.51638200  0.62583600  0.18971300  1
  W  W39  1  0.48251800  0.78857600  0.85012900  1
  W  W40  1  0.48215600  0.16487800  0.28956200  1
  W  W41  1  0.51784400  0.83512200  0.71043800  1
  W  W42  1  0.51638200  0.87416400  0.31028700  1
  W  W43  1  0.50979800  0.91208100  0.91102700  1
  W  W44  1  0.51320700  0.70572100  0.39180900  1
  W  W45  1  0.51561800  0.76525200  0.50495600  1
  W  W46  1  0.51570600  0.41723300  0.66908900  1
  W  W47  1  0.48679300  0.20572100  0.89180900  1
  W  W48  1  0.48924400  0.83289200  0.45307300  1
  W  W49  1  0.51748200  0.28857600  0.35012900  1
  O  O50  1  0.00493900  0.87388900  0.31134900  1
  O  O51  1  0.50060900  0.44000700  0.59683300  1
  O  O52  1  0.50056300  0.27258300  0.67872000  1
  O  O53  1  0.50046300  0.47962900  0.19869200  1
  O  O54  1  0.50123000  0.43388900  0.84219500  1
  O  O55  1  0.99473000  0.41447900  0.41302100  1
  O  O56  1  0.49990000  0.22974600  0.07558900  1
  O  O57  1  0.50420800  0.88291000  0.48712000  1
  O  O58  1  0.00590400  0.04155600  0.22923500  1
  O  O59  1  0.50127600  0.27122300  0.17901400  1
  O  O60  1  0.00408800  0.17050200  0.54506100  1
  O  O61  1  0.49872400  0.77122300  0.67901400  1
  O  O62  1  0.00014200  0.12390000  0.43455700  1
  O  O63  1  0.49943700  0.72741700  0.32128000  1
  O  O64  1  0.00493900  0.62611100  0.18865100  1
  O  O65  1  0.49877000  0.56611100  0.15780500  1
  O  O66  1  0.50083400  0.68620900  0.21944000  1
  O  O67  1  0.49874600  0.35374900  0.63738800  1
  O  O68  1  0.49697800  0.31963800  0.03409600  1
  O  O69  1  0.49579200  0.38291000  0.98712000  1
  O  O70  1  0.49963500  0.35686800  0.13801800  1
  O  O71  1  0.00622800  0.74523100  0.99532500  1
  O  O72  1  0.49821800  0.73912000  0.07481100  1
  O  O73  1  0.50011200  0.18910300  0.21981200  1
  O  O74  1  0.99495100  0.33498900  0.20954500  1
  O  O75  1  0.49995200  0.10116800  0.26006700  1
  O  O76  1  0.50056300  0.22741700  0.82128000  1
  O  O77  1  0.49972200  0.35387900  0.88389600  1
  O  O78  1  0.50420800  0.61709000  0.01288000  1
  O  O79  1  0.50027800  0.85387900  0.38389600  1
  O  O80  1  0.49586900  0.09970400  0.00720700  1
  O  O81  1  0.00527000  0.91447900  0.91302100  1
  O  O82  1  0.49916600  0.31379100  0.78056000  1
  O  O83  1  0.99512600  0.91765500  0.16788800  1
  O  O84  1  0.00504900  0.66501100  0.79045500  1
  O  O85  1  0.50083400  0.81379100  0.28056000  1
  O  O86  1  0.51120700  0.97381100  0.94427700  1
  O  O87  1  0.49953700  0.52037100  0.80130800  1
  O  O88  1  0.50004800  0.89883200  0.73993300  1
  O  O89  1  0.50536800  0.19140800  0.97079100  1
  O  O90  1  0.48879300  0.47381100  0.44427700  1
  O  O91  1  0.49953700  0.97962900  0.69869200  1
  O  O92  1  0.50273500  0.84925800  0.88244700  1
  O  O93  1  0.00408800  0.32949800  0.95493900  1
  O  O94  1  0.99377200  0.24523100  0.49532500  1
  O  O95  1  0.00370300  0.49834900  0.87279600  1
  O  O96  1  0.49821800  0.76088000  0.42518900  1
  O  O97  1  0.50010000  0.72974600  0.57558900  1
  O  O98  1  0.50178200  0.26088000  0.92518900  1
  O  O99  1  0.99641700  0.20781600  0.89363100  1
  O  O100  1  0.51120700  0.52618900  0.55572300  1
  O  O101  1  0.99563900  0.78893100  0.85173200  1
  O  O102  1  0.00014200  0.37610000  0.06544300  1
  O  O103  1  0.00622800  0.75476900  0.50467500  1
  O  O104  1  0.00504900  0.83498900  0.70954500  1
  O  O105  1  0.50011200  0.31089700  0.28018800  1
  O  O106  1  0.99629700  0.99834900  0.37279600  1
  O  O107  1  0.00358300  0.70781600  0.39363100  1
  O  O108  1  0.50189500  0.02395200  0.55490400  1
  O  O109  1  0.49923000  0.39496500  0.73925000  1
  O  O110  1  0.00487400  0.41765500  0.66788800  1
  O  O111  1  0.50027800  0.64612100  0.11610400  1
  O  O112  1  0.50125400  0.64625100  0.36261200  1
  O  O113  1  0.49943700  0.77258300  0.17872000  1
  O  O114  1  0.50092100  0.06188500  0.40359300  1
  O  O115  1  0.00527000  0.58552100  0.58697900  1
  O  O116  1  0.49939100  0.94000700  0.09683300  1
  O  O117  1  0.49810500  0.52395200  0.05490400  1
  O  O118  1  0.50189500  0.47604800  0.94509600  1
  O  O119  1  0.99409600  0.54155600  0.72923500  1
  O  O120  1  0.49907900  0.93811500  0.59640700  1
  O  O121  1  0.99578700  0.96909800  0.02539300  1
  O  O122  1  0.99377200  0.25476900  0.00467500  1
  O  O123  1  0.99591200  0.67050200  0.04506100  1
  O  O124  1  0.00483400  0.25000000  0.75000000  1
  O  O125  1  0.50004800  0.60116800  0.76006700  1
  O  O126  1  0.50046300  0.02037100  0.30130800  1
  O  O127  1  0.49923000  0.10503500  0.76075000  1
  O  O128  1  0.50413100  0.90029600  0.99279300  1
  O  O129  1  0.50536800  0.30859200  0.52920900  1
  O  O130  1  0.00421300  0.46909800  0.52539300  1
  O  O131  1  0.49877000  0.93388900  0.34219500  1
  O  O132  1  0.99985800  0.87610000  0.56544300  1
  O  O133  1  0.49945500  0.56380600  0.65779500  1
  O  O134  1  0.00358300  0.79218400  0.10636900  1
  O  O135  1  0.49697800  0.18036200  0.46590400  1
  O  O136  1  0.50054500  0.43619400  0.34220500  1
  O  O137  1  0.49988800  0.68910300  0.71981200  1
  O  O138  1  0.50053600  0.48113900  0.69850500  1
  O  O139  1  0.50077000  0.60503500  0.26075000  1
  O  O140  1  0.49874600  0.14625100  0.86261200  1
  O  O141  1  0.00370300  0.00165100  0.62720400  1
  O  O142  1  0.50123000  0.06611100  0.65780500  1
  O  O143  1  0.49726500  0.15074200  0.11755300  1
  O  O144  1  0.99495100  0.16501100  0.29045500  1
  O  O145  1  0.99641700  0.29218400  0.60636900  1
  O  O146  1  0.50125400  0.85374900  0.13738800  1
  O  O147  1  0.99506100  0.12611100  0.68865100  1
  O  O148  1  0.00487400  0.08234500  0.83211200  1
  O  O149  1  0.49872400  0.72877700  0.82098600  1
  O  O150  1  0.00590400  0.45844400  0.27076500  1
  O  O151  1  0.49907900  0.56188500  0.90359300  1
  O  O152  1  0.00421300  0.03090200  0.97460700  1
  O  O153  1  0.50302200  0.81963800  0.53409600  1
  O  O154  1  0.49972200  0.14612100  0.61610400  1
  O  O155  1  0.50054500  0.06380600  0.15779500  1
  O  O156  1  0.99591200  0.82949800  0.45493900  1
  O  O157  1  0.50053600  0.01886100  0.80149500  1
  O  O158  1  0.49586900  0.40029600  0.49279300  1
  O  O159  1  0.49579200  0.11709000  0.51288000  1
  O  O160  1  0.49990000  0.27025400  0.42441100  1
  O  O161  1  0.50302200  0.68036200  0.96590400  1
  O  O162  1  0.50273500  0.65074200  0.61755300  1
  O  O163  1  0.49810500  0.97604800  0.44509600  1
  O  O164  1  0.00436100  0.28893100  0.35173200  1
  O  O165  1  0.49726500  0.34925800  0.38244700  1
  O  O166  1  0.49988800  0.81089700  0.78018800  1
  O  O167  1  0.50010000  0.77025400  0.92441100  1
  O  O168  1  0.49939100  0.55999300  0.40316700  1
  O  O169  1  0.99409600  0.95844400  0.77076500  1
  O  O170  1  0.50036500  0.64313200  0.86198200  1
  O  O171  1  0.49463200  0.80859200  0.02920900  1
  O  O172  1  0.99563900  0.71106900  0.64826800  1
  O  O173  1  0.49463200  0.69140800  0.47079100  1
  O  O174  1  0.49916600  0.18620900  0.71944000  1
  O  O175  1  0.99473000  0.08552100  0.08697900  1
  O  O176  1  0.99578700  0.53090200  0.47460700  1
  O  O177  1  0.50127600  0.22877700  0.32098600  1
  O  O178  1  0.99629700  0.50165100  0.12720400  1
  O  O179  1  0.49946400  0.51886100  0.30149500  1
  O  O180  1  0.48879300  0.02618900  0.05572300  1
  O  O181  1  0.49995200  0.39883200  0.23993300  1
  O  O182  1  0.49963500  0.14313200  0.36198200  1
  O  O183  1  0.49945500  0.93619400  0.84220500  1
  O  O184  1  0.99512600  0.58234500  0.33211200  1
  O  O185  1  0.50060900  0.05999300  0.90316700  1
  O  O186  1  0.49946400  0.98113900  0.19850500  1
  O  O187  1  0.99506100  0.37388900  0.81134900  1
  O  O188  1  0.99516600  0.75000000  0.25000000  1
  O  O189  1  0.00436100  0.21106900  0.14826800  1
  O  O190  1  0.50413100  0.59970400  0.50720700  1
  O  O191  1  0.50077000  0.89496500  0.23925000  1
  O  O192  1  0.50036500  0.85686800  0.63801800  1
  O  O193  1  0.50092100  0.43811500  0.09640700  1
  O  O194  1  0.50178200  0.23912000  0.57481100  1
  O  O195  1  0.99985800  0.62390000  0.93455700  1
