# generated using pymatgen
data_Y10H21
_symmetry_space_group_name_H-M   'P 1'
_cell_length_a   6.36675586
_cell_length_b   7.34941020
_cell_length_c   8.20458513
_cell_angle_alpha   102.94634943
_cell_angle_beta   97.33284507
_cell_angle_gamma   106.85946397
_symmetry_Int_Tables_number   1
_chemical_formula_structural   Y10H21
_chemical_formula_sum   'Y10 H21'
_cell_volume   350.34966147
_cell_formula_units_Z   1
loop_
 _symmetry_equiv_pos_site_id
 _symmetry_equiv_pos_as_xyz
  1  'x, y, z'
loop_
 _atom_site_type_symbol
 _atom_site_label
 _atom_site_symmetry_multiplicity
 _atom_site_fract_x
 _atom_site_fract_y
 _atom_site_fract_z
 _atom_site_occupancy
  Y  Y0  1  0.70251477  0.65270981  0.90084914  1
  Y  Y1  1  0.49989745  0.25017955  0.50093424  1
  Y  Y2  1  0.29707476  0.85050676  0.09998726  1
  Y  Y3  1  0.70292524  0.14949324  0.90001274  1
  Y  Y4  1  0.10087572  0.44915985  0.69959271  1
  Y  Y5  1  0.50010255  0.74982045  0.49906576  1
  Y  Y6  1  0.90057358  0.04877511  0.29684697  1
  Y  Y7  1  0.29748523  0.34729019  0.09915086  1
  Y  Y8  1  0.09942642  0.95122489  0.70315303  1
  Y  Y9  1  0.89912428  0.55084015  0.30040729  1
  H  H10  1  0.55029726  0.97527959  0.34905263  1
  H  H11  1  0.35069507  0.57541836  0.95085269  1
  H  H12  1  0.14880357  0.17310633  0.54906781  1
  H  H13  1  0.64930493  0.42458164  0.04914731  1
  H  H14  1  0.54873829  0.47391614  0.34889019  1
  H  H15  1  0.44970274  0.02472041  0.65094737  1
  H  H16  1  0.94840443  0.76887575  0.15357611  1
  H  H17  1  0.36077143  0.07679777  0.94893146  1
  H  H18  1  0.63922857  0.92320223  0.05106854  1
  H  H19  1  0.15004846  0.67668050  0.55044865  1
  H  H20  1  0.24926703  0.62429370  0.24861099  1
  H  H21  1  0.75073297  0.37570630  0.75138901  1
  H  H22  1  0.94810114  0.28211838  0.15362216  1
  H  H23  1  0.05159557  0.23112425  0.84642389  1
  H  H24  1  0.45126171  0.52608386  0.65110981  1
  H  H25  1  0.85119643  0.82689367  0.45093219  1
  H  H26  1  0.25706938  0.12823621  0.25639233  1
  H  H27  1  0.74293062  0.87176379  0.74360767  1
  H  H28  1  -0.00000000  -0.00000000  -0.00000000  1
  H  H29  1  0.05189886  0.71788162  0.84637784  1
  H  H30  1  0.84995154  0.32331950  0.44955135  1
