# generated using pymatgen
data_Y2C
_symmetry_space_group_name_H-M   'P 1'
_cell_length_a   6.46417065
_cell_length_b   6.46417102
_cell_length_c   6.46417148
_cell_angle_alpha   32.52346167
_cell_angle_beta   32.52344776
_cell_angle_gamma   32.52345515
_symmetry_Int_Tables_number   1
_chemical_formula_structural   Y2C
_chemical_formula_sum   'Y2 C1'
_cell_volume   69.42956413
_cell_formula_units_Z   1
loop_
 _symmetry_equiv_pos_site_id
 _symmetry_equiv_pos_as_xyz
  1  'x, y, z'
loop_
 _atom_site_type_symbol
 _atom_site_label
 _atom_site_symmetry_multiplicity
 _atom_site_fract_x
 _atom_site_fract_y
 _atom_site_fract_z
 _atom_site_occupancy
  Y  Y0  1  0.73974582  0.73974582  0.73974582  1
  Y  Y1  1  0.26025418  0.26025418  0.26025418  1
  C  C2  1  0.00000000  -0.00000000  -0.00000000  1
