# generated using pymatgen
data_YP5
_symmetry_space_group_name_H-M   'P 1'
_cell_length_a   4.96864383
_cell_length_b   5.35912402
_cell_length_c   9.40489714
_cell_angle_alpha   90.00000000
_cell_angle_beta   90.00000000
_cell_angle_gamma   102.27344448
_symmetry_Int_Tables_number   1
_chemical_formula_structural   YP5
_chemical_formula_sum   'Y2 P10'
_cell_volume   244.70586834
_cell_formula_units_Z   2
loop_
 _symmetry_equiv_pos_site_id
 _symmetry_equiv_pos_as_xyz
  1  'x, y, z'
loop_
 _atom_site_type_symbol
 _atom_site_label
 _atom_site_symmetry_multiplicity
 _atom_site_fract_x
 _atom_site_fract_y
 _atom_site_fract_z
 _atom_site_occupancy
  Y  Y0  1  0.00329184  0.34737855  0.25000000  1
  Y  Y1  1  0.99670816  0.65262145  0.75000000  1
  P  P2  1  0.28115598  0.89361493  0.25000000  1
  P  P3  1  0.71884402  0.10638507  0.75000000  1
  P  P4  1  0.61433535  0.95422464  0.40804044  1
  P  P5  1  0.38566465  0.04577536  0.90804044  1
  P  P6  1  0.38566465  0.04577536  0.59195956  1
  P  P7  1  0.61433535  0.95422464  0.09195956  1
  P  P8  1  0.71114191  0.59724149  0.47107397  1
  P  P9  1  0.28885809  0.40275951  0.97107397  1
  P  P10  1  0.28885809  0.40275951  0.52892603  1
  P  P11  1  0.71114191  0.59724149  0.02892603  1
