# generated using pymatgen
data_YSi
_symmetry_space_group_name_H-M   'P 1'
_cell_length_a   3.83365494
_cell_length_b   4.28659803
_cell_length_c   5.70192882
_cell_angle_alpha   112.07933101
_cell_angle_beta   90.00000000
_cell_angle_gamma   90.00000000
_symmetry_Int_Tables_number   1
_chemical_formula_structural   YSi
_chemical_formula_sum   'Y2 Si2'
_cell_volume   86.83003973
_cell_formula_units_Z   2
loop_
 _symmetry_equiv_pos_site_id
 _symmetry_equiv_pos_as_xyz
  1  'x, y, z'
loop_
 _atom_site_type_symbol
 _atom_site_label
 _atom_site_symmetry_multiplicity
 _atom_site_fract_x
 _atom_site_fract_y
 _atom_site_fract_z
 _atom_site_occupancy
  Y  Y0  1  0.25000000  0.85937018  0.71874236  1
  Y  Y1  1  0.75000000  0.14062982  0.28125764  1
  Si  Si2  1  0.25000000  0.57552238  0.15104576  1
  Si  Si3  1  0.75000000  0.42447762  0.84895424  1
