# generated using pymatgen
data_Y3C4
_symmetry_space_group_name_H-M   'P 1'
_cell_length_a   8.10416372
_cell_length_b   8.10416372
_cell_length_c   15.97977528
_cell_angle_alpha   90.00000000
_cell_angle_beta   90.00000000
_cell_angle_gamma   90.00000000
_symmetry_Int_Tables_number   1
_chemical_formula_structural   Y3C4
_chemical_formula_sum   'Y30 C40'
_cell_volume   1049.51120518
_cell_formula_units_Z   10
loop_
 _symmetry_equiv_pos_site_id
 _symmetry_equiv_pos_as_xyz
  1  'x, y, z'
loop_
 _atom_site_type_symbol
 _atom_site_label
 _atom_site_symmetry_multiplicity
 _atom_site_fract_x
 _atom_site_fract_y
 _atom_site_fract_z
 _atom_site_occupancy
  Y  Y0  1  0.50000000  0.50000000  0.50000000  1
  Y  Y1  1  0.00000000  0.00000000  0.00000000  1
  Y  Y2  1  0.50000000  0.50000000  0.18736704  1
  Y  Y3  1  0.00000000  0.00000000  0.68736704  1
  Y  Y4  1  0.50000000  0.50000000  0.81263296  1
  Y  Y5  1  0.00000000  0.00000000  0.31263296  1
  Y  Y6  1  0.70191701  0.90418523  0.50000000  1
  Y  Y7  1  0.29808299  0.09581477  0.50000000  1
  Y  Y8  1  0.79808299  0.40418523  0.00000000  1
  Y  Y9  1  0.20191701  0.59581477  0.00000000  1
  Y  Y10  1  0.90418523  0.29808299  0.50000000  1
  Y  Y11  1  0.09581477  0.70191701  0.50000000  1
  Y  Y12  1  0.40418523  0.20191701  0.00000000  1
  Y  Y13  1  0.59581477  0.79808299  0.00000000  1
  Y  Y14  1  0.78837320  0.60001744  0.35332161  1
  Y  Y15  1  0.21162680  0.39998256  0.35332161  1
  Y  Y16  1  0.71162680  0.10001744  0.85332161  1
  Y  Y17  1  0.28837320  0.89998256  0.85332161  1
  Y  Y18  1  0.60001744  0.21162680  0.35332161  1
  Y  Y19  1  0.39998256  0.78837320  0.35332161  1
  Y  Y20  1  0.10001744  0.28837320  0.85332161  1
  Y  Y21  1  0.89998256  0.71162680  0.85332161  1
  Y  Y22  1  0.21162680  0.39998256  0.64667839  1
  Y  Y23  1  0.78837320  0.60001744  0.64667839  1
  Y  Y24  1  0.28837320  0.89998256  0.14667839  1
  Y  Y25  1  0.71162680  0.10001744  0.14667839  1
  Y  Y26  1  0.39998256  0.78837320  0.64667839  1
  Y  Y27  1  0.60001744  0.21162680  0.64667839  1
  Y  Y28  1  0.89998256  0.71162680  0.14667839  1
  Y  Y29  1  0.10001744  0.28837320  0.14667839  1
  C  C30  1  0.50000000  0.50000000  0.95947611  1
  C  C31  1  0.00000000  0.00000000  0.45947611  1
  C  C32  1  0.50000000  0.50000000  0.04052389  1
  C  C33  1  0.00000000  0.00000000  0.54052389  1
  C  C34  1  0.50000000  0.50000000  0.34242117  1
  C  C35  1  0.00000000  0.00000000  0.84242117  1
  C  C36  1  0.50000000  0.50000000  0.65757883  1
  C  C37  1  0.00000000  0.00000000  0.15757883  1
  C  C38  1  0.60627690  0.19543118  0.50000000  1
  C  C39  1  0.39372310  0.80456882  0.50000000  1
  C  C40  1  0.89372310  0.69543118  0.00000000  1
  C  C41  1  0.10627690  0.30456882  0.00000000  1
  C  C42  1  0.19543118  0.39372310  0.50000000  1
  C  C43  1  0.80456882  0.60627690  0.50000000  1
  C  C44  1  0.69543118  0.10627690  0.00000000  1
  C  C45  1  0.30456882  0.89372310  0.00000000  1
  C  C46  1  0.69373440  0.90211971  0.32632434  1
  C  C47  1  0.30626560  0.09788029  0.32632434  1
  C  C48  1  0.80626560  0.40211971  0.82632434  1
  C  C49  1  0.19373440  0.59788029  0.82632434  1
  C  C50  1  0.90211971  0.30626560  0.32632434  1
  C  C51  1  0.09788029  0.69373440  0.32632434  1
  C  C52  1  0.40211971  0.19373440  0.82632434  1
  C  C53  1  0.59788029  0.80626560  0.82632434  1
  C  C54  1  0.30626560  0.09788029  0.67367566  1
  C  C55  1  0.69373440  0.90211971  0.67367566  1
  C  C56  1  0.19373440  0.59788029  0.17367566  1
  C  C57  1  0.80626560  0.40211971  0.17367566  1
  C  C58  1  0.09788029  0.69373440  0.67367566  1
  C  C59  1  0.90211971  0.30626560  0.67367566  1
  C  C60  1  0.59788029  0.80626560  0.17367566  1
  C  C61  1  0.40211971  0.19373440  0.17367566  1
  C  C62  1  0.64964823  0.85035177  0.25000000  1
  C  C63  1  0.35035177  0.14964823  0.25000000  1
  C  C64  1  0.85035177  0.35035177  0.75000000  1
  C  C65  1  0.14964823  0.64964823  0.75000000  1
  C  C66  1  0.85035177  0.35035177  0.25000000  1
  C  C67  1  0.14964823  0.64964823  0.25000000  1
  C  C68  1  0.35035177  0.14964823  0.75000000  1
  C  C69  1  0.64964823  0.85035177  0.75000000  1
