# generated using pymatgen
data_YbC2
_symmetry_space_group_name_H-M   'P 1'
_cell_length_a   3.76127584
_cell_length_b   3.76127615
_cell_length_c   4.15330734
_cell_angle_alpha   116.92414707
_cell_angle_beta   116.92414648
_cell_angle_gamma   89.99807149
_symmetry_Int_Tables_number   1
_chemical_formula_structural   YbC2
_chemical_formula_sum   'Yb1 C2'
_cell_volume   45.13028339
_cell_formula_units_Z   1
loop_
 _symmetry_equiv_pos_site_id
 _symmetry_equiv_pos_as_xyz
  1  'x, y, z'
loop_
 _atom_site_type_symbol
 _atom_site_label
 _atom_site_symmetry_multiplicity
 _atom_site_fract_x
 _atom_site_fract_y
 _atom_site_fract_z
 _atom_site_occupancy
  Yb  Yb0  1  0.00000015  0.00000024  0.00000021  1
  C  C1  1  0.59814725  0.59814721  0.19629578  1
  C  C2  1  0.40185260  0.40185255  0.80370401  1
