# generated using pymatgen
data_Yb6Cl13
_symmetry_space_group_name_H-M   'P 1'
_cell_length_a   6.47631671
_cell_length_b   6.78748032
_cell_length_c   20.65411472
_cell_angle_alpha   97.80266201
_cell_angle_beta   99.03812351
_cell_angle_gamma   89.98859456
_symmetry_Int_Tables_number   1
_chemical_formula_structural   Yb6Cl13
_chemical_formula_sum   'Yb12 Cl26'
_cell_volume   888.12971753
_cell_formula_units_Z   2
loop_
 _symmetry_equiv_pos_site_id
 _symmetry_equiv_pos_as_xyz
  1  'x, y, z'
loop_
 _atom_site_type_symbol
 _atom_site_label
 _atom_site_symmetry_multiplicity
 _atom_site_fract_x
 _atom_site_fract_y
 _atom_site_fract_z
 _atom_site_occupancy
  Yb  Yb0  1  0.65797968  0.34707647  0.25695864  1
  Yb  Yb1  1  0.34202032  0.65292353  0.74304136  1
  Yb  Yb2  1  0.82018981  0.49176123  0.58065327  1
  Yb  Yb3  1  0.17981019  0.50823877  0.41934673  1
  Yb  Yb4  1  0.89822604  0.15292087  0.74309933  1
  Yb  Yb5  1  0.10177396  0.84707913  0.25690067  1
  Yb  Yb6  1  0.98120781  0.62102970  0.90687743  1
  Yb  Yb7  1  0.01879219  0.37897030  0.09312257  1
  Yb  Yb8  1  0.57516234  0.87936715  0.09327630  1
  Yb  Yb9  1  0.42483766  0.12063285  0.90672370  1
  Yb  Yb10  1  0.74138544  0.00822926  0.41878511  1
  Yb  Yb11  1  0.25861456  0.99177074  0.58121489  1
  Cl  Cl12  1  0.73939961  0.11651579  0.01285402  1
  Cl  Cl13  1  0.26060039  0.88348421  0.98714598  1
  Cl  Cl14  1  0.38664367  0.21698841  0.14187472  1
  Cl  Cl15  1  0.61335633  0.78301159  0.85812528  1
  Cl  Cl16  1  0.89448604  0.10379475  0.17574902  1
  Cl  Cl17  1  0.10551396  0.89620525  0.82425098  1
  Cl  Cl18  1  0.48563155  0.02253812  0.29319721  1
  Cl  Cl19  1  0.51436845  0.97746188  0.70680279  1
  Cl  Cl20  1  0.98082755  0.17808825  0.33884951  1
  Cl  Cl21  1  0.01917245  0.82191175  0.66115049  1
  Cl  Cl22  1  0.57105882  0.36879287  0.43496057  1
  Cl  Cl23  1  0.42894118  0.63120713  0.56503943  1
  Cl  Cl24  1  0.06045575  0.24980127  0.50000000  1
  Cl  Cl25  1  0.93954425  0.75019873  0.50000000  1
  Cl  Cl26  1  0.63415162  0.13089926  0.56516874  1
  Cl  Cl27  1  0.36584838  0.86910074  0.43483126  1
  Cl  Cl28  1  0.13856331  0.32181326  0.66107743  1
  Cl  Cl29  1  0.86143669  0.67818674  0.33892257  1
  Cl  Cl30  1  0.68868809  0.47677193  0.70635337  1
  Cl  Cl31  1  0.31131191  0.52322807  0.29364663  1
  Cl  Cl32  1  0.21666882  0.39603911  0.82408620  1
  Cl  Cl33  1  0.78333118  0.60396089  0.17591380  1
  Cl  Cl34  1  0.74338886  0.28359636  0.85823755  1
  Cl  Cl35  1  0.25661114  0.71640364  0.14176245  1
  Cl  Cl36  1  0.22635941  0.38335271  0.98696463  1
  Cl  Cl37  1  0.77364059  0.61664729  0.01303537  1
