# generated using pymatgen
data_YbP5
_symmetry_space_group_name_H-M   'P 1'
_cell_length_a   4.68848513
_cell_length_b   5.45319574
_cell_length_c   9.66144419
_cell_angle_alpha   90.00000000
_cell_angle_beta   90.00000000
_cell_angle_gamma   105.53018700
_symmetry_Int_Tables_number   1
_chemical_formula_structural   YbP5
_chemical_formula_sum   'Yb2 P10'
_cell_volume   237.99765365
_cell_formula_units_Z   2
loop_
 _symmetry_equiv_pos_site_id
 _symmetry_equiv_pos_as_xyz
  1  'x, y, z'
loop_
 _atom_site_type_symbol
 _atom_site_label
 _atom_site_symmetry_multiplicity
 _atom_site_fract_x
 _atom_site_fract_y
 _atom_site_fract_z
 _atom_site_occupancy
  Yb  Yb0  1  0.06560257  0.38100269  0.25000000  1
  Yb  Yb1  1  0.93439743  0.61899731  0.75000000  1
  P  P2  1  0.28385133  0.92767585  0.25000000  1
  P  P3  1  0.71614867  0.07232415  0.75000000  1
  P  P4  1  0.62869496  0.97277753  0.40882007  1
  P  P5  1  0.37130504  0.02722247  0.90882007  1
  P  P6  1  0.37130504  0.02722247  0.59117993  1
  P  P7  1  0.62869496  0.97277753  0.09117993  1
  P  P8  1  0.68956855  0.59068854  0.44044237  1
  P  P9  1  0.31043145  0.40931146  0.94044237  1
  P  P10  1  0.31043145  0.40931146  0.55955763  1
  P  P11  1  0.68956855  0.59068854  0.05955763  1
