# generated using pymatgen
data_YbN2
_symmetry_space_group_name_H-M   'P 1'
_cell_length_a   4.06363467
_cell_length_b   4.06363263
_cell_length_c   4.68119254
_cell_angle_alpha   90.00001263
_cell_angle_beta   90.00000000
_cell_angle_gamma   89.99851897
_symmetry_Int_Tables_number   1
_chemical_formula_structural   YbN2
_chemical_formula_sum   'Yb2 N4'
_cell_volume   77.30108685
_cell_formula_units_Z   2
loop_
 _symmetry_equiv_pos_site_id
 _symmetry_equiv_pos_as_xyz
  1  'x, y, z'
loop_
 _atom_site_type_symbol
 _atom_site_label
 _atom_site_symmetry_multiplicity
 _atom_site_fract_x
 _atom_site_fract_y
 _atom_site_fract_z
 _atom_site_occupancy
  Yb  Yb0  1  0.99999900  0.99999900  0.99999900  1
  Yb  Yb1  1  0.50000000  0.50000000  0.50000000  1
  N  N2  1  0.39239018  0.39239118  -0.00000000  1
  N  N3  1  0.60760782  0.60760782  0.00000000  1
  N  N4  1  0.89240947  0.10759153  0.49999900  1
  N  N5  1  0.10759153  0.89240947  0.49999900  1
