# generated using pymatgen
data_YbC6
_symmetry_space_group_name_H-M   'P 1'
_cell_length_a   4.32115662
_cell_length_b   4.32115572
_cell_length_c   8.66758585
_cell_angle_alpha   90.00096809
_cell_angle_beta   89.99903211
_cell_angle_gamma   119.99921935
_symmetry_Int_Tables_number   1
_chemical_formula_structural   YbC6
_chemical_formula_sum   'Yb2 C12'
_cell_volume   140.16259354
_cell_formula_units_Z   2
loop_
 _symmetry_equiv_pos_site_id
 _symmetry_equiv_pos_as_xyz
  1  'x, y, z'
loop_
 _atom_site_type_symbol
 _atom_site_label
 _atom_site_symmetry_multiplicity
 _atom_site_fract_x
 _atom_site_fract_y
 _atom_site_fract_z
 _atom_site_occupancy
  Yb  Yb0  1  0.66667535  0.33332471  0.74999985  1
  Yb  Yb1  1  0.33332508  0.66667560  0.24999983  1
  C  C2  1  0.66669824  -0.00001030  0.49997185  1
  C  C3  1  0.33328230  0.33328340  0.49997443  1
  C  C4  1  -0.00000879  0.66669965  0.49997658  1
  C  C5  1  0.33330024  0.00000924  0.49997660  1
  C  C6  1  0.00001019  0.33330215  0.49997181  1
  C  C7  1  0.66671654  0.66671819  0.49997446  1
  C  C8  1  0.33329389  0.00000136  0.00002514  1
  C  C9  1  0.66671040  0.66671232  0.00002528  1
  C  C10  1  0.00000518  0.33329595  0.00002587  1
  C  C11  1  0.66670405  -0.00000512  0.00002581  1
  C  C12  1  -0.00000136  0.66670617  0.00002517  1
  C  C13  1  0.33328768  0.33328966  0.00002530  1
