# generated using pymatgen
data_YbSi2
_symmetry_space_group_name_H-M   'P 1'
_cell_length_a   4.18420712
_cell_length_b   4.18420712
_cell_length_c   7.34952903
_cell_angle_alpha   106.53841332
_cell_angle_beta   106.53841332
_cell_angle_gamma   90.00000000
_symmetry_Int_Tables_number   1
_chemical_formula_structural   YbSi2
_chemical_formula_sum   'Yb2 Si4'
_cell_volume   117.78559898
_cell_formula_units_Z   2
loop_
 _symmetry_equiv_pos_site_id
 _symmetry_equiv_pos_as_xyz
  1  'x, y, z'
loop_
 _atom_site_type_symbol
 _atom_site_label
 _atom_site_symmetry_multiplicity
 _atom_site_fract_x
 _atom_site_fract_y
 _atom_site_fract_z
 _atom_site_occupancy
  Yb  Yb0  1  0.12500000  0.87500000  0.25000000  1
  Yb  Yb1  1  0.87500000  0.12500000  0.75000000  1
  Si  Si2  1  0.45940326  0.70940326  0.91880751  1
  Si  Si3  1  0.70940326  0.45940326  0.41880751  1
  Si  Si4  1  0.54059674  0.29059674  0.08119249  1
  Si  Si5  1  0.29059674  0.54059674  0.58119249  1
