# generated using pymatgen
data_Yb3Si5
_symmetry_space_group_name_H-M   'P 1'
_cell_length_a   6.88961834
_cell_length_b   6.88961762
_cell_length_c   4.19041951
_cell_angle_alpha   90.00000000
_cell_angle_beta   90.00000000
_cell_angle_gamma   119.99999332
_symmetry_Int_Tables_number   1
_chemical_formula_structural   Yb3Si5
_chemical_formula_sum   'Yb3 Si5'
_cell_volume   172.25762174
_cell_formula_units_Z   1
loop_
 _symmetry_equiv_pos_site_id
 _symmetry_equiv_pos_as_xyz
  1  'x, y, z'
loop_
 _atom_site_type_symbol
 _atom_site_label
 _atom_site_symmetry_multiplicity
 _atom_site_fract_x
 _atom_site_fract_y
 _atom_site_fract_z
 _atom_site_occupancy
  Yb  Yb0  1  -0.00000000  0.66606401  0.00000000  1
  Yb  Yb1  1  0.33393599  0.33393599  -0.00000000  1
  Yb  Yb2  1  0.66606401  -0.00000000  0.00000000  1
  Si  Si3  1  0.66666700  0.33333300  0.50000000  1
  Si  Si4  1  0.33333300  0.66666700  0.50000000  1
  Si  Si5  1  -0.00000000  0.32171400  0.50000000  1
  Si  Si6  1  0.32171400  -0.00000000  0.50000000  1
  Si  Si7  1  0.67828600  0.67828600  0.50000000  1
