# generated using pymatgen
data_YbB4
_symmetry_space_group_name_H-M   'P 1'
_cell_length_a   4.04647121
_cell_length_b   7.10069856
_cell_length_c   7.10069856
_cell_angle_alpha   90.00000000
_cell_angle_beta   90.00000000
_cell_angle_gamma   90.00000000
_symmetry_Int_Tables_number   1
_chemical_formula_structural   YbB4
_chemical_formula_sum   'Yb4 B16'
_cell_volume   204.02275485
_cell_formula_units_Z   4
loop_
 _symmetry_equiv_pos_site_id
 _symmetry_equiv_pos_as_xyz
  1  'x, y, z'
loop_
 _atom_site_type_symbol
 _atom_site_label
 _atom_site_symmetry_multiplicity
 _atom_site_fract_x
 _atom_site_fract_y
 _atom_site_fract_z
 _atom_site_occupancy
  Yb  Yb0  1  0.00000000  0.31186852  0.81186752  1
  Yb  Yb1  1  -0.00000000  0.68813248  0.18813248  1
  Yb  Yb2  1  -0.00000000  0.18813248  0.31186852  1
  Yb  Yb3  1  0.00000000  0.81186752  0.68813248  1
  B  B4  1  0.79450759  0.50000000  0.50000000  1
  B  B5  1  0.79450759  -0.00000000  0.00000000  1
  B  B6  1  0.20549241  0.50000000  0.50000000  1
  B  B7  1  0.20549241  -0.00000000  0.00000000  1
  B  B8  1  0.50000000  0.58524302  0.91475698  1
  B  B9  1  0.50000000  0.41475698  0.08524302  1
  B  B10  1  0.50000000  0.91475698  0.41475698  1
  B  B11  1  0.50000000  0.08524302  0.58524302  1
  B  B12  1  0.50000000  0.53604042  0.67552691  1
  B  B13  1  0.50000000  0.46395958  0.32447309  1
  B  B14  1  0.50000000  0.96395958  0.17552691  1
  B  B15  1  0.50000000  0.03604042  0.82447309  1
  B  B16  1  0.50000000  0.67552691  0.46395958  1
  B  B17  1  0.50000000  0.32447309  0.53604042  1
  B  B18  1  0.50000000  0.17552691  0.03604042  1
  B  B19  1  0.50000000  0.82447309  0.96395958  1
