# generated using pymatgen
data_YbCl2
_symmetry_space_group_name_H-M   'P 1'
_cell_length_a   6.52818298
_cell_length_b   6.77374050
_cell_length_c   12.79397927
_cell_angle_alpha   90.00000000
_cell_angle_beta   90.00000000
_cell_angle_gamma   90.00000000
_symmetry_Int_Tables_number   1
_chemical_formula_structural   YbCl2
_chemical_formula_sum   'Yb8 Cl16'
_cell_volume   565.75254528
_cell_formula_units_Z   8
loop_
 _symmetry_equiv_pos_site_id
 _symmetry_equiv_pos_as_xyz
  1  'x, y, z'
loop_
 _atom_site_type_symbol
 _atom_site_label
 _atom_site_symmetry_multiplicity
 _atom_site_fract_x
 _atom_site_fract_y
 _atom_site_fract_z
 _atom_site_occupancy
  Yb  Yb0  1  0.73281048  0.04618232  0.61127713  1
  Yb  Yb1  1  0.23281048  0.95381768  0.88872287  1
  Yb  Yb2  1  0.76718952  0.54618232  0.38872287  1
  Yb  Yb3  1  0.26718952  0.45381768  0.11127713  1
  Yb  Yb4  1  0.26718952  0.95381768  0.38872287  1
  Yb  Yb5  1  0.76718952  0.04618232  0.11127713  1
  Yb  Yb6  1  0.23281048  0.45381768  0.61127713  1
  Yb  Yb7  1  0.73281048  0.54618232  0.88872287  1
  Cl  Cl8  1  0.99812846  0.23734259  0.46996074  1
  Cl  Cl9  1  0.49812846  0.76265741  0.03003926  1
  Cl  Cl10  1  0.50187154  0.73734259  0.53003926  1
  Cl  Cl11  1  0.00187154  0.26265741  0.96996074  1
  Cl  Cl12  1  0.00187154  0.76265741  0.53003926  1
  Cl  Cl13  1  0.50187154  0.23734259  0.96996074  1
  Cl  Cl14  1  0.49812846  0.26265741  0.46996074  1
  Cl  Cl15  1  0.99812846  0.73734259  0.03003926  1
  Cl  Cl16  1  0.85612679  0.88334723  0.79325356  1
  Cl  Cl17  1  0.35612679  0.11665277  0.70674644  1
  Cl  Cl18  1  0.64387321  0.38334723  0.20674644  1
  Cl  Cl19  1  0.14387321  0.61665277  0.29325356  1
  Cl  Cl20  1  0.14387321  0.11665277  0.20674644  1
  Cl  Cl21  1  0.64387321  0.88334723  0.29325356  1
  Cl  Cl22  1  0.35612679  0.61665277  0.79325356  1
  Cl  Cl23  1  0.85612679  0.38334723  0.70674644  1
