# generated using pymatgen
data_Yb2Si
_symmetry_space_group_name_H-M   'P 1'
_cell_length_a   4.78977052
_cell_length_b   7.30867225
_cell_length_c   8.84461132
_cell_angle_alpha   90.00000000
_cell_angle_beta   90.00000000
_cell_angle_gamma   90.00000000
_symmetry_Int_Tables_number   1
_chemical_formula_structural   Yb2Si
_chemical_formula_sum   'Yb8 Si4'
_cell_volume   309.62209574
_cell_formula_units_Z   4
loop_
 _symmetry_equiv_pos_site_id
 _symmetry_equiv_pos_as_xyz
  1  'x, y, z'
loop_
 _atom_site_type_symbol
 _atom_site_label
 _atom_site_symmetry_multiplicity
 _atom_site_fract_x
 _atom_site_fract_y
 _atom_site_fract_z
 _atom_site_occupancy
  Yb  Yb0  1  0.75000000  0.83887706  0.92272542  1
  Yb  Yb1  1  0.25000000  0.16112294  0.07727458  1
  Yb  Yb2  1  0.25000000  0.66112294  0.42272542  1
  Yb  Yb3  1  0.75000000  0.33887706  0.57727458  1
  Yb  Yb4  1  0.75000000  0.98255491  0.31413190  1
  Yb  Yb5  1  0.25000000  0.01744509  0.68586810  1
  Yb  Yb6  1  0.25000000  0.51744509  0.81413190  1
  Yb  Yb7  1  0.75000000  0.48255491  0.18586810  1
  Si  Si8  1  0.75000000  0.74928310  0.60051371  1
  Si  Si9  1  0.25000000  0.25071690  0.39948629  1
  Si  Si10  1  0.25000000  0.75071690  0.10051371  1
  Si  Si11  1  0.75000000  0.24928310  0.89948629  1
