# generated using pymatgen
data_Yb8Si11
_symmetry_space_group_name_H-M   'P 1'
_cell_length_a   4.37187812
_cell_length_b   7.76863917
_cell_length_c   12.89821812
_cell_angle_alpha   107.52396875
_cell_angle_beta   99.74900951
_cell_angle_gamma   89.99831258
_symmetry_Int_Tables_number   1
_chemical_formula_structural   Yb8Si11
_chemical_formula_sum   'Yb8 Si11'
_cell_volume   411.10067747
_cell_formula_units_Z   1
loop_
 _symmetry_equiv_pos_site_id
 _symmetry_equiv_pos_as_xyz
  1  'x, y, z'
loop_
 _atom_site_type_symbol
 _atom_site_label
 _atom_site_symmetry_multiplicity
 _atom_site_fract_x
 _atom_site_fract_y
 _atom_site_fract_z
 _atom_site_occupancy
  Yb  Yb0  1  0.43250150  0.43093030  0.86098614  1
  Yb  Yb1  1  0.43077546  0.92909711  0.85738881  1
  Yb  Yb2  1  0.70475491  0.70402440  0.40632913  1
  Yb  Yb3  1  0.70126001  0.20023323  0.39895096  1
  Yb  Yb4  1  0.30008821  0.54882599  0.59554704  1
  Yb  Yb5  1  0.29994523  0.04793024  0.59560336  1
  Yb  Yb6  1  0.57392139  0.82292223  0.14424321  1
  Yb  Yb7  1  0.57402040  0.32305305  0.14448213  1
  Si  Si8  1  0.11174337  0.11077438  0.21972833  1
  Si  Si9  1  0.88824386  0.14075404  0.77229860  1
  Si  Si10  1  0.17249944  0.41909241  0.34216495  1
  Si  Si11  1  0.17259571  0.92466797  0.34206575  1
  Si  Si12  1  0.83374645  0.83199802  0.66276781  1
  Si  Si13  1  0.88868714  0.63240058  0.77206341  1
  Si  Si14  1  0.11747459  0.61673084  0.23190056  1
  Si  Si15  1  0.98448032  0.76182347  0.96590297  1
  Si  Si16  1  0.02176108  0.51946993  0.03852077  1
  Si  Si17  1  0.98497030  0.20438586  0.96622328  1
  Si  Si18  1  0.82979664  0.32784395  0.65473677  1
