# generated using pymatgen
data_Zn3P2
_symmetry_space_group_name_H-M   'P 1'
_cell_length_a   9.82021591
_cell_length_b   9.82021591
_cell_length_c   9.82021591
_cell_angle_alpha   109.47122063
_cell_angle_beta   109.47122063
_cell_angle_gamma   109.47122063
_symmetry_Int_Tables_number   1
_chemical_formula_structural   Zn3P2
_chemical_formula_sum   'Zn24 P16'
_cell_volume   729.02298079
_cell_formula_units_Z   8
loop_
 _symmetry_equiv_pos_site_id
 _symmetry_equiv_pos_as_xyz
  1  'x, y, z'
loop_
 _atom_site_type_symbol
 _atom_site_label
 _atom_site_symmetry_multiplicity
 _atom_site_fract_x
 _atom_site_fract_y
 _atom_site_fract_z
 _atom_site_occupancy
  Zn  Zn0  1  0.97496695  0.72818889  0.96526088  1
  Zn  Zn1  1  0.73707300  0.77181111  0.24677906  1
  Zn  Zn2  1  0.52503305  0.99029393  0.25322094  1
  Zn  Zn3  1  0.76292700  0.50970607  0.53473912  1
  Zn  Zn4  1  0.72818889  0.96526088  0.97496695  1
  Zn  Zn5  1  0.77181111  0.24677906  0.73707300  1
  Zn  Zn6  1  0.99029393  0.25322094  0.52503305  1
  Zn  Zn7  1  0.50970607  0.53473912  0.76292700  1
  Zn  Zn8  1  0.96526088  0.97496695  0.72818889  1
  Zn  Zn9  1  0.24677906  0.73707300  0.77181111  1
  Zn  Zn10  1  0.25322094  0.52503305  0.99029393  1
  Zn  Zn11  1  0.53473912  0.76292700  0.50970607  1
  Zn  Zn12  1  0.02503305  0.27181111  0.03473912  1
  Zn  Zn13  1  0.26292700  0.22818889  0.75322094  1
  Zn  Zn14  1  0.47496695  0.00970607  0.74677906  1
  Zn  Zn15  1  0.23707300  0.49029393  0.46526088  1
  Zn  Zn16  1  0.27181111  0.03473912  0.02503305  1
  Zn  Zn17  1  0.22818889  0.75322094  0.26292700  1
  Zn  Zn18  1  0.00970607  0.74677906  0.47496695  1
  Zn  Zn19  1  0.49029393  0.46526088  0.23707300  1
  Zn  Zn20  1  0.03473912  0.02503305  0.27181111  1
  Zn  Zn21  1  0.75322094  0.26292700  0.22818889  1
  Zn  Zn22  1  0.74677906  0.47496695  0.00970607  1
  Zn  Zn23  1  0.46526088  0.23707300  0.49029393  1
  P  P24  1  -0.00000000  0.50000000  -0.00000000  1
  P  P25  1  -0.00000000  -0.00000000  0.50000000  1
  P  P26  1  0.50000000  -0.00000000  -0.00000000  1
  P  P27  1  0.50000000  0.50000000  0.50000000  1
  P  P28  1  0.25901807  0.75000000  0.50901807  1
  P  P29  1  0.24098193  0.25000000  0.99098193  1
  P  P30  1  0.75000000  0.50901807  0.25901807  1
  P  P31  1  0.25000000  0.99098193  0.24098193  1
  P  P32  1  0.50901807  0.25901807  0.75000000  1
  P  P33  1  0.99098193  0.24098193  0.25000000  1
  P  P34  1  0.74098193  0.25000000  0.49098193  1
  P  P35  1  0.75901807  0.75000000  0.00901807  1
  P  P36  1  0.25000000  0.49098193  0.74098193  1
  P  P37  1  0.75000000  0.00901807  0.75901807  1
  P  P38  1  0.49098193  0.74098193  0.25000000  1
  P  P39  1  0.00901807  0.75901807  0.75000000  1
