# generated using pymatgen
data_Zn3N2
_symmetry_space_group_name_H-M   'P 1'
_cell_length_a   8.42764716
_cell_length_b   8.42764607
_cell_length_c   8.42764586
_cell_angle_alpha   109.47122254
_cell_angle_beta   109.47121991
_cell_angle_gamma   109.47121720
_symmetry_Int_Tables_number   1
_chemical_formula_structural   Zn3N2
_chemical_formula_sum   'Zn24 N16'
_cell_volume   460.78362004
_cell_formula_units_Z   8
loop_
 _symmetry_equiv_pos_site_id
 _symmetry_equiv_pos_as_xyz
  1  'x, y, z'
loop_
 _atom_site_type_symbol
 _atom_site_label
 _atom_site_symmetry_multiplicity
 _atom_site_fract_x
 _atom_site_fract_y
 _atom_site_fract_z
 _atom_site_occupancy
  Zn  Zn0  1  0.04818938  0.27639289  0.02409417  1
  Zn  Zn1  1  0.27179749  0.74770127  0.22360711  1
  Zn  Zn2  1  0.75229873  0.02409522  0.47590583  1
  Zn  Zn3  1  0.45181062  0.47590478  0.22820251  1
  Zn  Zn4  1  0.22820251  0.45181062  0.47590478  1
  Zn  Zn5  1  0.27639289  0.02409417  0.04818938  1
  Zn  Zn6  1  0.22360711  0.27179749  0.74770127  1
  Zn  Zn7  1  0.02409522  0.47590583  0.75229873  1
  Zn  Zn8  1  0.47590583  0.75229873  0.02409522  1
  Zn  Zn9  1  0.74770127  0.22360711  0.27179749  1
  Zn  Zn10  1  0.02409417  0.04818938  0.27639289  1
  Zn  Zn11  1  0.47590478  0.22820251  0.45181062  1
  Zn  Zn12  1  0.97590478  0.52409417  0.24770127  1
  Zn  Zn13  1  0.77639289  0.72820251  0.25229873  1
  Zn  Zn14  1  0.72360711  0.97590583  0.95181062  1
  Zn  Zn15  1  0.77179749  0.54818938  0.52409522  1
  Zn  Zn16  1  0.54818938  0.52409522  0.77179749  1
  Zn  Zn17  1  0.24770127  0.97590478  0.52409417  1
  Zn  Zn18  1  0.72820251  0.25229873  0.77639289  1
  Zn  Zn19  1  0.95181062  0.72360711  0.97590583  1
  Zn  Zn20  1  0.52409417  0.24770127  0.97590478  1
  Zn  Zn21  1  0.25229873  0.77639289  0.72820251  1
  Zn  Zn22  1  0.97590583  0.95181062  0.72360711  1
  Zn  Zn23  1  0.52409522  0.77179749  0.54818938  1
  N  N24  1  0.25000000  0.72912153  0.47912153  1
  N  N25  1  0.02087847  0.75000000  0.77087847  1
  N  N26  1  0.77087847  0.02087847  0.75000000  1
  N  N27  1  0.47912153  0.25000000  0.72912153  1
  N  N28  1  0.72912153  0.47912153  0.25000000  1
  N  N29  1  0.75000000  0.77087847  0.02087847  1
  N  N30  1  0.75000000  0.27087847  0.52087847  1
  N  N31  1  0.97912153  0.25000000  0.22912153  1
  N  N32  1  0.22912153  0.97912153  0.25000000  1
  N  N33  1  0.52087847  0.75000000  0.27087847  1
  N  N34  1  0.27087847  0.52087847  0.75000000  1
  N  N35  1  0.25000000  0.22912153  0.97912153  1
  N  N36  1  -0.00000000  0.50000000  -0.00000000  1
  N  N37  1  0.50000000  -0.00000000  -0.00000000  1
  N  N38  1  -0.00000000  -0.00000000  0.50000000  1
  N  N39  1  0.50000000  0.50000000  0.50000000  1
