# generated using pymatgen
data_Zr5Al4
_symmetry_space_group_name_H-M   'P 1'
_cell_length_a   8.43939580
_cell_length_b   8.43939543
_cell_length_c   5.79126092
_cell_angle_alpha   90.00000000
_cell_angle_beta   90.00000000
_cell_angle_gamma   119.99999054
_symmetry_Int_Tables_number   1
_chemical_formula_structural   Zr5Al4
_chemical_formula_sum   'Zr10 Al8'
_cell_volume   357.21237581
_cell_formula_units_Z   2
loop_
 _symmetry_equiv_pos_site_id
 _symmetry_equiv_pos_as_xyz
  1  'x, y, z'
loop_
 _atom_site_type_symbol
 _atom_site_label
 _atom_site_symmetry_multiplicity
 _atom_site_fract_x
 _atom_site_fract_y
 _atom_site_fract_z
 _atom_site_occupancy
  Zr  Zr0  1  0.29112170  0.29112170  0.75000000  1
  Zr  Zr1  1  0.99999900  0.70887830  0.75000000  1
  Zr  Zr2  1  0.00000100  0.29112170  0.25000000  1
  Zr  Zr3  1  0.70887930  0.99999900  0.75000000  1
  Zr  Zr4  1  0.33333300  0.66666600  0.50000000  1
  Zr  Zr5  1  0.70887830  0.70887830  0.25000000  1
  Zr  Zr6  1  0.29112070  0.00000100  0.25000000  1
  Zr  Zr7  1  0.66666700  0.33333400  0.50000000  1
  Zr  Zr8  1  0.66666700  0.33333400  -0.00000000  1
  Zr  Zr9  1  0.33333300  0.66666600  -0.00000000  1
  Al  Al10  1  0.00000000  0.63061804  0.25000000  1
  Al  Al11  1  0.36938196  0.36938196  0.25000000  1
  Al  Al12  1  0.63061804  0.00000000  0.25000000  1
  Al  Al13  1  -0.00000000  -0.00000000  -0.00000000  1
  Al  Al14  1  0.36938196  -0.00000000  0.75000000  1
  Al  Al15  1  0.63061804  0.63061804  0.75000000  1
  Al  Al16  1  -0.00000000  -0.00000000  0.50000000  1
  Al  Al17  1  -0.00000000  0.36938196  0.75000000  1
