# generated using pymatgen
data_Zr3O
_symmetry_space_group_name_H-M   'P 1'
_cell_length_a   10.89019823
_cell_length_b   10.89019819
_cell_length_c   10.89020005
_cell_angle_alpha   30.08803538
_cell_angle_beta   30.08803623
_cell_angle_gamma   30.08803397
_symmetry_Int_Tables_number   1
_chemical_formula_structural   Zr3O
_chemical_formula_sum   'Zr12 O4'
_cell_volume   287.56664394
_cell_formula_units_Z   4
loop_
 _symmetry_equiv_pos_site_id
 _symmetry_equiv_pos_as_xyz
  1  'x, y, z'
loop_
 _atom_site_type_symbol
 _atom_site_label
 _atom_site_symmetry_multiplicity
 _atom_site_fract_x
 _atom_site_fract_y
 _atom_site_fract_z
 _atom_site_occupancy
  Zr  Zr0  1  0.50000000  0.83973998  0.16026002  1
  Zr  Zr1  1  0.16026002  0.50000000  0.83973998  1
  Zr  Zr2  1  0.41536460  0.07597381  0.75786372  1
  Zr  Zr3  1  -0.00000000  0.34210396  0.65789604  1
  Zr  Zr4  1  0.34210396  0.65789604  0.00000000  1
  Zr  Zr5  1  0.24213628  0.92402619  0.58463540  1
  Zr  Zr6  1  0.65789604  0.00000000  0.34210396  1
  Zr  Zr7  1  0.92402619  0.58463540  0.24213628  1
  Zr  Zr8  1  0.75786372  0.41536460  0.07597381  1
  Zr  Zr9  1  0.83973998  0.16026002  0.50000000  1
  Zr  Zr10  1  0.58463540  0.24213628  0.92402619  1
  Zr  Zr11  1  0.07597381  0.75786372  0.41536460  1
  O  O12  1  0.29153729  0.29153729  0.29153729  1
  O  O13  1  0.12518051  0.12518051  0.12518051  1
  O  O14  1  0.70846271  0.70846271  0.70846271  1
  O  O15  1  0.87481949  0.87481949  0.87481949  1
