# generated using pymatgen
data_Zr7P4
_symmetry_space_group_name_H-M   'P 1'
_cell_length_a   3.62639016
_cell_length_b   8.12006312
_cell_length_c   14.83130376
_cell_angle_alpha   104.53898113
_cell_angle_beta   89.99397719
_cell_angle_gamma   102.90623210
_symmetry_Int_Tables_number   1
_chemical_formula_structural   Zr7P4
_chemical_formula_sum   'Zr14 P8'
_cell_volume   411.33947451
_cell_formula_units_Z   2
loop_
 _symmetry_equiv_pos_site_id
 _symmetry_equiv_pos_as_xyz
  1  'x, y, z'
loop_
 _atom_site_type_symbol
 _atom_site_label
 _atom_site_symmetry_multiplicity
 _atom_site_fract_x
 _atom_site_fract_y
 _atom_site_fract_z
 _atom_site_occupancy
  Zr  Zr0  1  0.66014529  0.32000661  0.96962928  1
  Zr  Zr1  1  0.00377966  0.00829445  0.66689444  1
  Zr  Zr2  1  0.82295610  0.64629080  0.45771291  1
  Zr  Zr3  1  0.17704390  0.35370920  0.54228709  1
  Zr  Zr4  1  0.43180237  0.86299400  0.83421602  1
  Zr  Zr5  1  -0.00000000  -0.00000000  -0.00000000  1
  Zr  Zr6  1  0.56819763  0.13700600  0.16578398  1
  Zr  Zr7  1  0.20465645  0.40898259  0.79619262  1
  Zr  Zr8  1  0.99622034  0.99170555  0.33310556  1
  Zr  Zr9  1  0.19496171  0.38978144  0.31005483  1
  Zr  Zr10  1  0.79534355  0.59101741  0.20380738  1
  Zr  Zr11  1  0.80503829  0.61021856  0.68994517  1
  Zr  Zr12  1  0.33985471  0.67999339  0.03037072  1
  Zr  Zr13  1  0.50000000  -0.00000000  0.50000000  1
  P  P14  1  0.37404575  0.74804018  0.60034574  1
  P  P15  1  0.06272586  0.12561692  0.85259287  1
  P  P16  1  0.62595425  0.25195982  0.39965426  1
  P  P17  1  0.63101131  0.26127628  0.65941729  1
  P  P18  1  0.93727414  0.87438208  0.14740713  1
  P  P19  1  0.17771015  0.35604316  0.11086941  1
  P  P20  1  0.36898869  0.73872372  0.34058271  1
  P  P21  1  0.82228985  0.64395684  0.88913059  1
