# generated using pymatgen
data_Zr10C9
_symmetry_space_group_name_H-M   'P 1'
_cell_length_a   8.81799141
_cell_length_b   8.81799141
_cell_length_c   11.05363520
_cell_angle_alpha   62.92424593
_cell_angle_beta   62.92424593
_cell_angle_gamma   44.54408168
_symmetry_Int_Tables_number   1
_chemical_formula_structural   Zr10C9
_chemical_formula_sum   'Zr20 C18'
_cell_volume   524.92915239
_cell_formula_units_Z   2
loop_
 _symmetry_equiv_pos_site_id
 _symmetry_equiv_pos_as_xyz
  1  'x, y, z'
loop_
 _atom_site_type_symbol
 _atom_site_label
 _atom_site_symmetry_multiplicity
 _atom_site_fract_x
 _atom_site_fract_y
 _atom_site_fract_z
 _atom_site_occupancy
  Zr  Zr0  1  0.22326917  0.47874042  0.94737650  1
  Zr  Zr1  1  0.72120405  0.96671728  0.95638962  1
  Zr  Zr2  1  0.56316682  0.33163549  0.64850425  1
  Zr  Zr3  1  0.43683318  0.66836451  0.35149575  1
  Zr  Zr4  1  0.27879595  0.03328272  0.04361038  1
  Zr  Zr5  1  0.08237162  0.81352820  0.64471915  1
  Zr  Zr6  1  0.12325720  0.37216539  0.75029363  1
  Zr  Zr7  1  0.91762838  0.18647180  0.35528085  1
  Zr  Zr8  1  0.96671728  0.72120405  0.45638962  1
  Zr  Zr9  1  0.77673083  0.52125958  0.05262350  1
  Zr  Zr10  1  0.62783461  0.87674280  0.74970637  1
  Zr  Zr11  1  0.81352820  0.08237162  0.14471915  1
  Zr  Zr12  1  0.47874042  0.22326917  0.44737650  1
  Zr  Zr13  1  0.66836451  0.43683318  0.85149575  1
  Zr  Zr14  1  0.52125958  0.77673083  0.55262350  1
  Zr  Zr15  1  0.33163549  0.56316682  0.14850425  1
  Zr  Zr16  1  0.37216539  0.12325720  0.25029363  1
  Zr  Zr17  1  0.18647180  0.91762838  0.85528085  1
  Zr  Zr18  1  0.03328272  0.27879595  0.54361038  1
  Zr  Zr19  1  0.87674280  0.62783461  0.24970637  1
  C  C20  1  0.07616014  0.32076233  0.15000089  1
  C  C21  1  0.92383986  0.67923767  0.84999911  1
  C  C22  1  0.57476831  0.82751862  0.14769900  1
  C  C23  1  0.77674012  0.02457676  0.55017453  1
  C  C24  1  0.42523169  0.17248138  0.85230100  1
  C  C25  1  0.62320866  0.37679134  0.25000000  1
  C  C26  1  0.27562981  0.52836954  0.55117928  1
  C  C27  1  0.47163046  0.72437019  0.94882072  1
  C  C28  1  0.32076233  0.07616014  0.65000089  1
  C  C29  1  0.17248138  0.42523169  0.35230100  1
  C  C30  1  0.97542324  0.22325988  0.94982547  1
  C  C31  1  0.82751862  0.57476831  0.64769900  1
  C  C32  1  0.02457676  0.77674012  0.05017453  1
  C  C33  1  0.67923767  0.92383986  0.34999911  1
  C  C34  1  0.72437019  0.47163046  0.44882072  1
  C  C35  1  0.52836954  0.27562981  0.05117928  1
  C  C36  1  0.37679134  0.62320866  0.75000000  1
  C  C37  1  0.22325988  0.97542324  0.44982547  1
