# generated using pymatgen
data_Zr2S
_symmetry_space_group_name_H-M   'P 1'
_cell_length_a   3.53638270
_cell_length_b   12.37479800
_cell_length_c   15.36382059
_cell_angle_alpha   90.00087063
_cell_angle_beta   90.00000827
_cell_angle_gamma   89.99999486
_symmetry_Int_Tables_number   1
_chemical_formula_structural   Zr2S
_chemical_formula_sum   'Zr24 S12'
_cell_volume   672.35184791
_cell_formula_units_Z   12
loop_
 _symmetry_equiv_pos_site_id
 _symmetry_equiv_pos_as_xyz
  1  'x, y, z'
loop_
 _atom_site_type_symbol
 _atom_site_label
 _atom_site_symmetry_multiplicity
 _atom_site_fract_x
 _atom_site_fract_y
 _atom_site_fract_z
 _atom_site_occupancy
  Zr  Zr0  1  0.49999989  0.65588969  0.47510412  1
  Zr  Zr1  1  0.50000005  0.34411813  0.52495590  1
  Zr  Zr2  1  0.00000021  0.84412862  0.97504922  1
  Zr  Zr3  1  0.99999948  0.15588869  0.02490732  1
  Zr  Zr4  1  0.49999996  0.57422538  0.25109289  1
  Zr  Zr5  1  0.49999998  0.42575148  0.74893362  1
  Zr  Zr6  1  0.99999979  0.92575840  0.75104153  1
  Zr  Zr7  1  0.99999996  0.07422871  0.24893983  1
  Zr  Zr8  1  0.49999990  0.08579166  0.41843311  1
  Zr  Zr9  1  0.49999945  0.91419897  0.58160538  1
  Zr  Zr10  1  1.00000009  0.41419060  0.91836338  1
  Zr  Zr11  1  1.00000003  0.58579077  0.08156700  1
  Zr  Zr12  1  0.49999992  0.96610418  0.10975255  1
  Zr  Zr13  1  0.49999993  0.03393027  0.89021808  1
  Zr  Zr14  1  1.00000004  0.53391049  0.60977578  1
  Zr  Zr15  1  0.99999997  0.46608835  0.39027833  1
  Zr  Zr16  1  0.50000011  0.29727859  0.29577648  1
  Zr  Zr17  1  0.49999991  0.70271100  0.70423140  1
  Zr  Zr18  1  -0.00000013  0.20274434  0.79574196  1
  Zr  Zr19  1  0.00000018  0.79730058  0.20425003  1
  Zr  Zr20  1  0.49999997  0.37377836  0.08086737  1
  Zr  Zr21  1  0.50000006  0.62618605  0.91905209  1
  Zr  Zr22  1  0.99999974  0.12620798  0.58092223  1
  Zr  Zr23  1  -0.00000010  0.87379152  0.41913538  1
  S  S24  1  0.50000006  0.92186779  0.29079926  1
  S  S25  1  0.49999994  0.07814080  0.70922000  1
  S  S26  1  0.99999999  0.57810539  0.79075710  1
  S  S27  1  0.00000005  0.42186220  0.20922180  1
  S  S28  1  0.50000013  0.74665493  0.07887823  1
  S  S29  1  0.49999983  0.25336530  0.92108210  1
  S  S30  1  -0.00000020  0.75335853  0.57889419  1
  S  S31  1  0.99999999  0.24664624  0.42114046  1
  S  S32  1  0.49999980  0.18011961  0.15176454  1
  S  S33  1  0.50000005  0.81988408  0.84820921  1
  S  S34  1  0.00000003  0.31987924  0.65177878  1
  S  S35  1  -0.00000004  0.68012407  0.34825735  1
