# generated using pymatgen
data_ZrAl2
_symmetry_space_group_name_H-M   'P 1'
_cell_length_a   5.27563406
_cell_length_b   5.27563177
_cell_length_c   8.73866071
_cell_angle_alpha   90.00000000
_cell_angle_beta   90.00000000
_cell_angle_gamma   119.99999070
_symmetry_Int_Tables_number   1
_chemical_formula_structural   ZrAl2
_chemical_formula_sum   'Zr4 Al8'
_cell_volume   210.63216353
_cell_formula_units_Z   4
loop_
 _symmetry_equiv_pos_site_id
 _symmetry_equiv_pos_as_xyz
  1  'x, y, z'
loop_
 _atom_site_type_symbol
 _atom_site_label
 _atom_site_symmetry_multiplicity
 _atom_site_fract_x
 _atom_site_fract_y
 _atom_site_fract_z
 _atom_site_occupancy
  Zr  Zr0  1  0.33333300  0.66666700  0.43491308  1
  Zr  Zr1  1  0.66666700  0.33333300  0.93491208  1
  Zr  Zr2  1  0.66666700  0.33333300  0.56508792  1
  Zr  Zr3  1  0.33333300  0.66666700  0.06508792  1
  Al  Al4  1  0.17066050  0.34132000  0.75000000  1
  Al  Al5  1  0.82933950  0.17066050  0.25000000  1
  Al  Al6  1  0.34132000  0.17066050  0.25000000  1
  Al  Al7  1  0.65868000  0.82933950  0.75000000  1
  Al  Al8  1  -0.00000000  -0.00000000  0.00000000  1
  Al  Al9  1  -0.00000000  -0.00000000  0.50000000  1
  Al  Al10  1  0.82933950  0.65868000  0.25000000  1
  Al  Al11  1  0.17066050  0.82933950  0.75000000  1
