# generated using pymatgen
data_Zr3Si2
_symmetry_space_group_name_H-M   'P 1'
_cell_length_a   3.71373656
_cell_length_b   7.10277134
_cell_length_c   7.10277134
_cell_angle_alpha   90.00000000
_cell_angle_beta   90.00000000
_cell_angle_gamma   90.00000000
_symmetry_Int_Tables_number   1
_chemical_formula_structural   Zr3Si2
_chemical_formula_sum   'Zr6 Si4'
_cell_volume   187.35563529
_cell_formula_units_Z   2
loop_
 _symmetry_equiv_pos_site_id
 _symmetry_equiv_pos_as_xyz
  1  'x, y, z'
loop_
 _atom_site_type_symbol
 _atom_site_label
 _atom_site_symmetry_multiplicity
 _atom_site_fract_x
 _atom_site_fract_y
 _atom_site_fract_z
 _atom_site_occupancy
  Zr  Zr0  1  0.50000000  0.17407417  0.67407517  1
  Zr  Zr1  1  0.50000000  0.82592483  0.32592483  1
  Zr  Zr2  1  0.50000000  0.32592483  0.17407417  1
  Zr  Zr3  1  0.50000000  0.67407517  0.82592483  1
  Zr  Zr4  1  0.00000000  -0.00000000  -0.00000000  1
  Zr  Zr5  1  0.00000000  0.50000000  0.50000000  1
  Si  Si6  1  -0.00000000  0.62185435  0.12185435  1
  Si  Si7  1  0.00000000  0.37814565  0.87814565  1
  Si  Si8  1  0.00000000  0.87814565  0.62185435  1
  Si  Si9  1  -0.00000000  0.12185435  0.37814565  1
